2020-12-11T10:55:59,481  INFO Gbl:63 JVM: 11.0.9.1; Ubuntu; mixed mode, sharing; 64-bit
2020-12-11T10:55:59,483  INFO Gbl:67 OS: Linux; 5.4.0-56-generic; amd64
2020-12-11T10:55:59,483  INFO Gbl:70 CPU cores: 8
2020-12-11T10:55:59,487  INFO Gbl:71 max. Memory: 3934.0MB (4125097984B)
2020-12-11T10:55:59,491  INFO Gbl:109 MATSim-Build: r3047d3a9d4b11b836b6f2a61b9605de74420d5a2 (2020-06-04 11:51:49)
2020-12-11T10:55:59,493  INFO ControlerListenerManagerImpl:107 calling notifyStartup on org.matsim.guice.DependencyGraphControlerListener
2020-12-11T10:55:59,506  INFO MemoryObserver:41 used RAM: 426 MB  free: 1487 MB  total: 1914 MB
2020-12-11T10:55:59,707  INFO ControlerListenerManagerImpl:107 calling notifyStartup on org.matsim.counts.CountsControlerListener
2020-12-11T10:55:59,707  INFO ControlerListenerManagerImpl:107 calling notifyStartup on org.matsim.analysis.ModeStatsControlerListener
2020-12-11T10:55:59,707  INFO ControlerListenerManagerImpl:107 calling notifyStartup on org.matsim.analysis.ScoreStatsControlerListener
2020-12-11T10:55:59,707  INFO ControlerListenerManagerImpl:107 calling notifyStartup on org.matsim.contribs.discrete_mode_choice.modules.utils.ModeChoiceInTheLoopChecker
2020-12-11T10:55:59,708  INFO ControlerListenerManagerImpl:110 all ControlerStartupListeners called.
2020-12-11T10:55:59,708  INFO ControlerUtils:79 config dump before iterations start
2020-12-11T10:55:59,743  INFO ControlerUtils:83 

<?xml version="1.0" encoding="UTF-8"?>
<!DOCTYPE config SYSTEM "http://www.matsim.org/files/dtd/config_v2.dtd">
<config>
	<module name="DiscreteModeChoice" >
		<param name="accumulateEstimationDelays" value="true" />
		<!-- Trips tested with the modes listed here will be cached for each combination of trip and agent during one replanning pass. -->
		<param name="cachedModes" value="pt, car, car_passenger, walk" />
		<!-- Defines whether to run a runtime check that verifies that everything is set up correctl for a 'mode-choice-in-the-loop' setup. -->
		<param name="enforceSinglePlan" value="true" />
		<!-- Defines what happens if there is no feasible choice alternative for an agent: IGNORE_AGENT, INITIAL_CHOICE, EXCEPTION -->
		<param name="fallbackBehaviour" value="INITIAL_CHOICE" />
		<!-- Defines how home activities are identified. Built-in choices: FirstActivity, ActivityBased -->
		<param name="homeFinder" value="EqasimHomeFinder" />
		<!-- Defines which ModeAvailability component to use. Built-in choices: Default, Car -->
		<param name="modeAvailability" value="Car" />
		<!-- Main model type: Trip, Tour -->
		<param name="modelType" value="Tour" />
		<!-- Defines whether the DiscreteModeChoice strategy should be followed by a rerouting of all trips. If the estimator returns alternatives with routes attached this is not necessary. -->
		<param name="performReroute" value="false" />
		<!-- Defines which Selector component to use. Built-in choices: Maximum, MultinomialLogit, Random -->
		<param name="selector" value="MultinomialLogit" />
		<!-- Defines a number of TourConstraint components that should be activated. Built-in choices: FromTripBased, VehicleContinuity, SubtourMode -->
		<param name="tourConstraints" value="FromTripBased, EqasimVehicleTourConstraint" />
		<!-- Defines which TourEstimator component to use. Built-in choices: MATSimDayScoring, Cumulative, Uniform -->
		<param name="tourEstimator" value="Cumulative" />
		<!-- Defines a number of TourFilter components that should be activated. Built-in choices: TourLength -->
		<param name="tourFilters" value="TourLengthFilter, OutsideFilter" />
		<!-- Defines which TourFinder component to use. Built-in choices: PlanBased, ActivityBased, HomeBased -->
		<param name="tourFinder" value="ActivityBased" />
		<!-- Defines a number of TripConstraint components that should be activated. Built-in choices: VehicleContinuity, ShapeFile, LinkAttribute, TransitWalk -->
		<param name="tripConstraints" value="PassengerConstraint, OutsideConstraint, TransitWalk" />
		<!-- Defines which TripEstimator component to use. Built-in choices: MATSimTripScoring, Uniform -->
		<param name="tripEstimator" value="EqasimUtilityEstimator" />
		<!-- Defines a number of TripFilter components that should be activated. Built-in choices:  -->
		<param name="tripFilters" value="" />
		<parameterset type="homeFinder:ActivityBased" >
			<!-- Comma-separated activity types which should be considered as home. -->
			<param name="activityTypes" value="home" />
		</parameterset>
		<parameterset type="modeAvailability:Car" >
			<!-- Defines which modes are avialable to the agents. -->
			<param name="availableModes" value="pt, car, walk" />
		</parameterset>
		<parameterset type="modeAvailability:Default" >
			<!-- Defines which modes are avialable to the agents. -->
			<param name="availableModes" value="pt, car, walk" />
		</parameterset>
		<parameterset type="selector:MultinomialLogit" >
			<!-- Defines whether candidates with a utility lower than the minimum utility should be filtered out. -->
			<param name="considerMinimumUtility" value="false" />
			<!-- Candidates with a utility above that threshold will be cut off to this value. -->
			<param name="maximumUtility" value="700.0" />
			<!-- Candidates with a utility lower than that threshold will not be considered by default. -->
			<param name="minimumUtility" value="-700.0" />
		</parameterset>
		<parameterset type="tourConstraint:SubtourMode" >
			<!-- Modes for which the sub-tour behaviour should be replicated. If all available modes are put here, this equals to SubTourModeChoice with singleLegProbability == 0.0; if only the constrained modes are put here, it equals singleLegProbability > 0.0 -->
			<param name="constrainedModes" value="" />
		</parameterset>
		<parameterset type="tourConstraint:VehicleContinuity" >
			<!-- Defines which modes must fulfill continuity constraints (can only be used where they have been brough to before) -->
			<param name="restrictedModes" value="car" />
		</parameterset>
		<parameterset type="tourFilter:TourLength" >
			<!-- Defines the maximum allowed length of a tour. -->
			<param name="maximumLength" value="10" />
		</parameterset>
		<parameterset type="tourFinder:ActivityBased" >
			<!-- Comma-separated activity types which should be considered as start and end of a tour. If a plan does not start or end with such an activity additional tours are added. -->
			<param name="activityTypes" value="home" />
		</parameterset>
		<parameterset type="tripConstraint:LinkAttribute" >
			<!-- Link attribute that will be considered for feasibility of the trip. -->
			<param name="attributeName" value="null" />
			<!-- Value that the link attributes should equal. -->
			<param name="attributeValue" value="null" />
			<!-- Modes for which the constraint will be considered. -->
			<param name="constrainedModes" value="" />
			<!-- Defines the criterion on when a trip with the constrained mode will be allowed: ORIGIN, DESTINATION, BOTH, ANY, NONE -->
			<param name="requirement" value="BOTH" />
		</parameterset>
		<parameterset type="tripConstraint:ShapeFile" >
			<!-- Modes for which the shapes will be considered. -->
			<param name="constrainedModes" value="" />
			<!-- Path to a shape file, which should have the same projection as the network. -->
			<param name="path" value="null" />
			<!-- Defines the criterion on when a trip with the constrained mode will be allowed: ORIGIN, DESTINATION, BOTH, ANY, NONE -->
			<param name="requirement" value="BOTH" />
		</parameterset>
		<parameterset type="tripConstraint:VehicleContinuity" >
			<!-- Defines if the advanced constriant is used (vehicles must be brought back home). -->
			<param name="isAdvanced" value="true" />
			<!-- Defines which modes must fulfill continuity constraints (can only be used where they have been brough to before) -->
			<param name="restrictedModes" value="car" />
		</parameterset>
		<parameterset type="tripEstimator:MATSimTripScoring" >
			<!-- Modes which are considered as public transit, i.e. they involve waiting for a vehicle. -->
			<param name="ptLegModes" value="pt" />
		</parameterset>
	</module>
	<module name="JDEQSim" >
		<param name="carSize" value="7.5" />
		<param name="endTime" value="undefined" />
		<param name="flowCapacityFactor" value="1.0" />
		<param name="gapTravelSpeed" value="15.0" />
		<param name="minimumInFlowCapacity" value="1800.0" />
		<param name="squeezeTime" value="1800.0" />
		<param name="storageCapacityFactor" value="1.0" />
	</module>
	<module name="TimeAllocationMutator" >
		<!-- Default:true; Defines whether time mutation changes an activity's duration. -->
		<param name="mutationAffectsDuration" value="true" />
		<!-- Default:1800.0; Defines how many seconds a time mutation can maximally shift a time. -->
		<param name="mutationRange" value="1800.0" />
	</module>
	<module name="changeMode" >
		<!-- Defines whether car availability is considered be considered or not. An agent has no car only if it has no license, or never access to a car. Default: true -->
		<param name="ignoreCarAvailability" value="true" />
		<!-- Defines the mode switch behavior. Possible values [fromAllModesToSpecifiedModes, fromSpecifiedModesToSpecifiedModes] Default: fromSpecifiedModesToSpecifiedModes. -->
		<param name="modeSwitchBehavior" value="fromSpecifiedModesToSpecifiedModes" />
		<!-- Defines all the modes available, including chain-based modes, seperated by commas -->
		<param name="modes" value="car,pt" />
	</module>
	<module name="controler" >
		<!-- Compression algorithm to use when writing out data to files. Possible values: [none, gzip, lz4, zst] -->
		<param name="compressionType" value="gzip" />
		<!-- Sets whether graphs showing some analyses should automatically be generated during the simulation. The generation of graphs usually takes a small amount of time that does not have any weight in big simulations, but add a significant overhead in smaller runs or in test cases where the graphical output is not even requested. -->
		<param name="createGraphs" value="true" />
		<!-- true if at the end of a run, plans, network, config etc should be dumped to a file -->
		<param name="dumpDataAtEnd" value="true" />
		<!-- Default=false. If enabled, the router takes travel times needed for turning moves into account. Cannot be used if the (Fast)AStarLandmarks routing or TravelTimeCalculator.separateModes is enabled. -->
		<param name="enableLinkToLinkRouting" value="false" />
		<!-- Default=xml; Specifies the file format for writing events. Currently supported: [xml, pb, json]
		Multiple values can be specified separated by commas (','). -->
		<param name="eventsFileFormat" value="xml" />
		<!-- Default=0. First Iteration of a simulation. -->
		<param name="firstIteration" value="0" />
		<!-- Default=1000. Last Iteration of a simulation. -->
		<param name="lastIteration" value="60" />
		<!-- Defines which mobility simulation will be used. Currently supported: qsim JDEQSim 
		Depending on the chosen mobsim, you'll have to add additional config modules to configure the corresponding mobsim.
		For 'qsim', add a module 'qsim' to the config. -->
		<param name="mobsim" value="qsim" />
		<param name="outputDirectory" value="simulation_output" />
		<!-- Possible values: failIfDirectoryExists, overwriteExistingFiles, deleteDirectoryIfExists -->
		<param name="overwriteFiles" value="deleteDirectoryIfExists" />
		<!-- The type of routing (least cost path) algorithm used, may have the values: Dijkstra, FastDijkstra, AStarLandmarks or FastAStarLandmarks -->
		<param name="routingAlgorithmType" value="FastAStarLandmarks" />
		<!-- An identifier for the current run which is used as prefix for output files and mentioned in output xml files etc. -->
		<param name="runId" value="null" />
		<!-- Comma-separated list of visualizer output file formats. `transims', `googleearth', and `otfvis'. -->
		<param name="snapshotFormat" value="" />
		<!-- iterationNumber % writeEventsInterval == 0 defines in which iterations events are written to a file. `0' disables events writing completely. -->
		<param name="writeEventsInterval" value="60" />
		<!-- iterationNumber % writePlansInterval == 0 defines (hopefully) in which iterations plans are written to a file. `0' disables plans writing completely.  Some plans in early iterations are always written -->
		<param name="writePlansInterval" value="60" />
		<!-- iterationNumber % writeSnapshotsInterval == 0 defines in which iterations snapshots are written to a file. `0' disables snapshots writing completely -->
		<param name="writeSnapshotsInterval" value="1" />
		<!-- iterationNumber % writeEventsInterval == 0 defines in which iterations trips CSV are written to a file. `0' disables trips writing completely. -->
		<param name="writeTripsInterval" value="10" />
	</module>
	<module name="counts" >
		<!-- Transport modes that will be respected for the counts comparison. 'car' is default, which includes also bussed from the pt simulation module. Use this parameter in combination with 'filterModes' = true! -->
		<param name="analyzedModes" value="car" />
		<!-- Specifies over how many iterations the link volumes should be averaged that are used for the counts comparison. Use 1 or 0 to only use the link volumes of a single iteration. This values cannot be larger than the value specified for writeCountsInterval -->
		<param name="averageCountsOverIterations" value="5" />
		<!-- factor by which to re-scale the simulated values.  necessary when simulation runs with something different from 100%.  needs to be adapted manually -->
		<param name="countsScaleFactor" value="1.0" />
		<!-- distance to distanceFilterCenterNode to include counting stations. The unit of distance is the Euclidean distance implied by the coordinate system -->
		<param name="distanceFilter" value="null" />
		<!-- node id for center node of distance filter -->
		<param name="distanceFilterCenterNode" value="null" />
		<!-- If true, link counts from legs performed on modes not included in the 'analyzedModes' parameter are ignored. -->
		<param name="filterModes" value="false" />
		<!-- The Coordinates Reference System in which the coordinates are expressed in the input file. At import, the coordinates will be converted to the coordinate system defined in "global", and willbe converted back at export. If not specified, no conversion happens. -->
		<param name="inputCRS" value="null" />
		<!-- input file name to counts package -->
		<param name="inputCountsFile" value="null" />
		<!-- possible values: `html', `kml', `txt', `all' -->
		<param name="outputformat" value="txt" />
		<!-- Specifies how often the counts comparison should be calculated and written. -->
		<param name="writeCountsInterval" value="10" />
	</module>
	<module name="eqasim" >
		<param name="costParametersPath" value="null" />
		<param name="crossingPenalty" value="3.0" />
		<!-- Possible values: kilometer, meter, mile, foot -->
		<param name="distanceUnit" value="foot" />
		<param name="modeParametersPath" value="null" />
		<param name="sampleSize" value="0.1" />
		<!-- Possible values: kilometer, meter, mile, foot -->
		<param name="tripAnalysisDistanceUnit" value="meter" />
		<param name="tripAnalysisInterval" value="5" />
		<param name="useScheduleBasedTransport" value="true" />
		<parameterset type="cost_model" >
			<param name="mode" value="car" />
			<param name="model" value="ZeroCostModel" />
		</parameterset>
		<parameterset type="cost_model" >
			<param name="mode" value="pt" />
			<param name="model" value="ZeroCostModel" />
		</parameterset>
		<parameterset type="estimator" >
			<param name="estimator" value="qcCarEstimator" />
			<param name="mode" value="car" />
		</parameterset>
		<parameterset type="estimator" >
			<param name="estimator" value="qcPTEstimator" />
			<param name="mode" value="pt" />
		</parameterset>
		<parameterset type="estimator" >
			<param name="estimator" value="qcWalkEstimator" />
			<param name="mode" value="walk" />
		</parameterset>
		<parameterset type="estimator" >
			<param name="estimator" value="qcCarPassengerEstimator" />
			<param name="mode" value="car_passenger" />
		</parameterset>
	</module>
	<module name="eqasim:calibration" >
		<param name="enableOutput" value="false" />
		<param name="hint" value="No hint given." />
		<param name="referencePath" value="null" />
	</module>
	<module name="facilities" >
		<!-- This defines how facilities should be created. Possible values: none fromFile setInScenario onePerActivityLinkInPlansFile onePerActivityLinkInPlansFileExceptWhenCoordinatesAreGiven onePerActivityLocationInPlansFile  -->
		<param name="facilitiesSource" value="none" />
		<!-- A prefix to be used for auto-generated IDs. -->
		<param name="idPrefix" value="f_auto_" />
		<!-- The Coordinates Reference System in which the coordinates are expressed in the input file. At import, the coordinates will be converted to the coordinate system defined in "global", and willbe converted back at export. If not specified, no conversion happens. -->
		<param name="inputCRS" value="null" />
		<param name="inputFacilitiesFile" value="qcfacilities.xml.gz" />
		<param name="inputFacilityAttributesFile" value="null" />
		<param name="insistingOnUsingDeprecatedFacilitiesAttributeFile" value="false" />
	</module>
	<module name="global" >
		<param name="coordinateSystem" value="EPSG:32187" />
		<param name="defaultDelimiter" value=";" />
		<param name="insistingOnDeprecatedConfigVersion" value="true" />
		<!-- "global" number of threads.  This number is used, e.g., for replanning, but NOT in the mobsim.  This can typically be set to as many cores as you have available, or possibly even slightly more. -->
		<param name="numberOfThreads" value="24" />
		<param name="randomSeed" value="0" />
	</module>
	<module name="households" >
		<param name="inputFile" value="qchouseholds.xml.gz" />
		<param name="inputHouseholdAttributesFile" value="null" />
		<param name="insistingOnUsingDeprecatedHouseholdsAttributeFile" value="false" />
	</module>
	<module name="linkStats" >
		<!-- Specifies over how many iterations the link volumes should be averaged that are used for the link statistics. Use 1 or 0 to only use the link volumes of a single iteration. This values cannot be larger than the value specified for writeLinkStatsInterval -->
		<param name="averageLinkStatsOverIterations" value="5" />
		<!-- Specifies how often the link stats should be calculated and written. Use 0 to disable the generation of link stats. -->
		<param name="writeLinkStatsInterval" value="10" />
	</module>
	<module name="network" >
		<!-- The Coordinates Reference System in which the coordinates are expressed in the input file. At import, the coordinates will be converted to the coordinate system defined in "global", and willbe converted back at export. If not specified, no conversion happens. -->
		<param name="inputCRS" value="null" />
		<param name="inputChangeEventsFile" value="null" />
		<param name="inputNetworkFile" value="qcnetwork.xml.gz" />
		<param name="laneDefinitionsFile" value="null" />
		<param name="timeVariantNetwork" value="false" />
	</module>
	<module name="parallelEventHandling" >
		<!-- Estimated number of events during mobsim run. An optional optimization hint for the framework. -->
		<param name="estimatedNumberOfEvents" value="null" />
		<!-- Number of threads for parallel events handler. _null_ means the framework decides by itself. 0 is currently not possible. -->
		<param name="numberOfThreads" value="null" />
		<!-- If enabled, each event handler is assigned to its own thread. Note that enabling this feature disabled the numberOfThreads option! This feature is still experimental! -->
		<param name="oneThreadPerHandler" value="false" />
		<!-- If enabled, it is ensured that all events that are created during a time step of the mobility simulation are processed before the next time step is simulated. E.g. neccessary when within-day replanning is used. -->
		<param name="synchronizeOnSimSteps" value="true" />
	</module>
	<module name="planCalcScore" >
		<!-- logit model scale parameter. default: 1.  Has name and default value for historical reasons (see Bryan Raney's phd thesis). -->
		<param name="BrainExpBeta" value="1.0" />
		<param name="PathSizeLogitBeta" value="1.0" />
		<!-- fraction of iterations at which MSA score averaging is started. The matsim theory department suggests to use this together with switching off choice set innovation (where a similar switch exists), but it has not been tested yet. -->
		<param name="fractionOfIterationsToStartScoreMSA" value="null" />
		<!-- new_score = (1-learningRate)*old_score + learningRate * score_from_mobsim.  learning rates close to zero emulate score averaging, but slow down initial convergence -->
		<param name="learningRate" value="1.0" />
		<!-- There used to be a plateau between duration=0 and duration=zeroUtilityDuration. This caused durations to evolve to zero once they were below zeroUtilityDuration, causing problems.  Only use this switch if you need to be backwards compatible with some old results.  (changed nov'13) -->
		<param name="usingOldScoringBelowZeroUtilityDuration" value="false" />
		<!-- write a plans file in each iteration directory which contains what each agent actually did, and the score it received. -->
		<param name="writeExperiencedPlans" value="false" />
		<parameterset type="scoringParameters" >
			<param name="earlyDeparture" value="-0.0" />
			<param name="lateArrival" value="-18.0" />
			<param name="marginalUtilityOfMoney" value="0.0" />
			<param name="performing" value="6.0" />
			<param name="subpopulation" value="null" />
			<param name="utilityOfLineSwitch" value="-1.0" />
			<param name="waiting" value="-0.0" />
			<param name="waitingPt" value="0.0" />
			<parameterset type="activityParams" >
				<param name="activityType" value="dummy" />
				<param name="closingTime" value="undefined" />
				<param name="earliestEndTime" value="undefined" />
				<param name="latestStartTime" value="undefined" />
				<param name="minimalDuration" value="undefined" />
				<param name="openingTime" value="undefined" />
				<param name="priority" value="1.0" />
				<param name="scoringThisActivityAtAll" value="true" />
				<!-- typical duration of activity.  needs to be defined and non-zero.  in sec. -->
				<param name="typicalDuration" value="02:00:00" />
				<!-- method to compute score at typical duration.  Options: | uniform | relative | Use uniform for backwards compatibility (all activities same score; higher proba to drop long acts). -->
				<param name="typicalDurationScoreComputation" value="relative" />
			</parameterset>
			<parameterset type="activityParams" >
				<param name="activityType" value="car interaction" />
				<param name="closingTime" value="undefined" />
				<param name="earliestEndTime" value="undefined" />
				<param name="latestStartTime" value="undefined" />
				<param name="minimalDuration" value="undefined" />
				<param name="openingTime" value="undefined" />
				<param name="priority" value="1.0" />
				<param name="scoringThisActivityAtAll" value="false" />
				<param name="typicalDuration" value="undefined" />
				<param name="typicalDurationScoreComputation" value="relative" />
			</parameterset>
			<parameterset type="activityParams" >
				<param name="activityType" value="pt interaction" />
				<param name="closingTime" value="undefined" />
				<param name="earliestEndTime" value="undefined" />
				<param name="latestStartTime" value="undefined" />
				<param name="minimalDuration" value="undefined" />
				<param name="openingTime" value="undefined" />
				<param name="priority" value="1.0" />
				<param name="scoringThisActivityAtAll" value="false" />
				<param name="typicalDuration" value="undefined" />
				<param name="typicalDurationScoreComputation" value="relative" />
			</parameterset>
			<parameterset type="activityParams" >
				<param name="activityType" value="drt interaction" />
				<param name="closingTime" value="undefined" />
				<param name="earliestEndTime" value="undefined" />
				<param name="latestStartTime" value="undefined" />
				<param name="minimalDuration" value="undefined" />
				<param name="openingTime" value="undefined" />
				<param name="priority" value="1.0" />
				<param name="scoringThisActivityAtAll" value="false" />
				<param name="typicalDuration" value="undefined" />
				<param name="typicalDurationScoreComputation" value="relative" />
			</parameterset>
			<parameterset type="activityParams" >
				<param name="activityType" value="walk interaction" />
				<param name="closingTime" value="undefined" />
				<param name="earliestEndTime" value="undefined" />
				<param name="latestStartTime" value="undefined" />
				<param name="minimalDuration" value="undefined" />
				<param name="openingTime" value="undefined" />
				<param name="priority" value="1.0" />
				<param name="scoringThisActivityAtAll" value="false" />
				<param name="typicalDuration" value="undefined" />
				<param name="typicalDurationScoreComputation" value="relative" />
			</parameterset>
			<parameterset type="activityParams" >
				<param name="activityType" value="home" />
				<param name="closingTime" value="undefined" />
				<param name="earliestEndTime" value="undefined" />
				<param name="latestStartTime" value="undefined" />
				<param name="minimalDuration" value="undefined" />
				<param name="openingTime" value="undefined" />
				<param name="priority" value="1.0" />
				<param name="scoringThisActivityAtAll" value="false" />
				<param name="typicalDuration" value="undefined" />
				<param name="typicalDurationScoreComputation" value="relative" />
			</parameterset>
			<parameterset type="activityParams" >
				<param name="activityType" value="work" />
				<param name="closingTime" value="undefined" />
				<param name="earliestEndTime" value="undefined" />
				<param name="latestStartTime" value="undefined" />
				<param name="minimalDuration" value="undefined" />
				<param name="openingTime" value="undefined" />
				<param name="priority" value="1.0" />
				<param name="scoringThisActivityAtAll" value="false" />
				<param name="typicalDuration" value="undefined" />
				<param name="typicalDurationScoreComputation" value="relative" />
			</parameterset>
			<parameterset type="activityParams" >
				<param name="activityType" value="education" />
				<param name="closingTime" value="undefined" />
				<param name="earliestEndTime" value="undefined" />
				<param name="latestStartTime" value="undefined" />
				<param name="minimalDuration" value="undefined" />
				<param name="openingTime" value="undefined" />
				<param name="priority" value="1.0" />
				<param name="scoringThisActivityAtAll" value="false" />
				<param name="typicalDuration" value="undefined" />
				<param name="typicalDurationScoreComputation" value="relative" />
			</parameterset>
			<parameterset type="activityParams" >
				<param name="activityType" value="shop" />
				<param name="closingTime" value="undefined" />
				<param name="earliestEndTime" value="undefined" />
				<param name="latestStartTime" value="undefined" />
				<param name="minimalDuration" value="undefined" />
				<param name="openingTime" value="undefined" />
				<param name="priority" value="1.0" />
				<param name="scoringThisActivityAtAll" value="false" />
				<param name="typicalDuration" value="undefined" />
				<param name="typicalDurationScoreComputation" value="relative" />
			</parameterset>
			<parameterset type="activityParams" >
				<param name="activityType" value="leisure" />
				<param name="closingTime" value="undefined" />
				<param name="earliestEndTime" value="undefined" />
				<param name="latestStartTime" value="undefined" />
				<param name="minimalDuration" value="undefined" />
				<param name="openingTime" value="undefined" />
				<param name="priority" value="1.0" />
				<param name="scoringThisActivityAtAll" value="false" />
				<param name="typicalDuration" value="undefined" />
				<param name="typicalDurationScoreComputation" value="relative" />
			</parameterset>
			<parameterset type="activityParams" >
				<param name="activityType" value="other" />
				<param name="closingTime" value="undefined" />
				<param name="earliestEndTime" value="undefined" />
				<param name="latestStartTime" value="undefined" />
				<param name="minimalDuration" value="undefined" />
				<param name="openingTime" value="undefined" />
				<param name="priority" value="1.0" />
				<param name="scoringThisActivityAtAll" value="false" />
				<param name="typicalDuration" value="undefined" />
				<param name="typicalDurationScoreComputation" value="relative" />
			</parameterset>
			<parameterset type="modeParams" >
				<!-- [utils] alternative-specific constant.  Normally per trip, but that is probably buggy for multi-leg trips. -->
				<param name="constant" value="0.0" />
				<!-- [money] daily monetary constant. default=0 to be backwards compatible -->
				<param name="dailyMonetaryConstant" value="0.0" />
				<!-- [utils] daily utility constant. default=0 to be backwards compatible -->
				<param name="dailyUtilityConstant" value="0.0" />
				<!-- [utils/m] utility of traveling (e.g. walking or driving) per m, normally negative.  this is on top of the time (dis)utility. -->
				<param name="marginalUtilityOfDistance_util_m" value="0.0" />
				<!-- [utils/hr] additional marginal utility of traveling.  normally negative.  this comes on top of the opportunity cost of time -->
				<param name="marginalUtilityOfTraveling_util_hr" value="-1.0" />
				<param name="mode" value="car" />
				<!-- [unit_of_money/m] conversion of distance into money. Normally negative. -->
				<param name="monetaryDistanceRate" value="0.0" />
			</parameterset>
			<parameterset type="modeParams" >
				<param name="constant" value="0.0" />
				<param name="dailyMonetaryConstant" value="0.0" />
				<param name="dailyUtilityConstant" value="0.0" />
				<param name="marginalUtilityOfDistance_util_m" value="0.0" />
				<param name="marginalUtilityOfTraveling_util_hr" value="-1.0" />
				<param name="mode" value="pt" />
				<param name="monetaryDistanceRate" value="0.0" />
			</parameterset>
			<parameterset type="modeParams" >
				<param name="constant" value="0.0" />
				<param name="dailyMonetaryConstant" value="0.0" />
				<param name="dailyUtilityConstant" value="0.0" />
				<param name="marginalUtilityOfDistance_util_m" value="0.0" />
				<param name="marginalUtilityOfTraveling_util_hr" value="-1.0" />
				<param name="mode" value="walk" />
				<param name="monetaryDistanceRate" value="0.0" />
			</parameterset>
			<parameterset type="modeParams" >
				<param name="constant" value="0.0" />
				<param name="dailyMonetaryConstant" value="0.0" />
				<param name="dailyUtilityConstant" value="0.0" />
				<param name="marginalUtilityOfDistance_util_m" value="0.0" />
				<param name="marginalUtilityOfTraveling_util_hr" value="-1.0" />
				<param name="mode" value="car_passenger" />
				<param name="monetaryDistanceRate" value="0.0" />
			</parameterset>
		</parameterset>
	</module>
	<module name="plans" >
		<!-- String: minOfDurationAndEndTime tryEndTimeThenDuration endTimeOnly. Anything besides minOfDurationAndEndTime will internally use a different (simpler) version of the TimeAllocationMutator. -->
		<param name="activityDurationInterpretation" value="tryEndTimeThenDuration" />
		<!-- Possible values: reject, useMainModeIdentifier -->
		<param name="handlingOfPlansWithoutRoutingMode" value="reject" />
		<!-- The Coordinates Reference System in which the coordinates are expressed in the input file. At import, the coordinates will be converted to the coordinate system defined in "global", and willbe converted back at export. If not specified, no conversion happens. -->
		<param name="inputCRS" value="null" />
		<param name="inputPersonAttributesFile" value="null" />
		<param name="inputPlansFile" value="qcpopulation.xml.gz" />
		<param name="insistingOnUsingDeprecatedPersonAttributeFile" value="false" />
		<!-- Defines how routes are stored in memory. Currently supported: LinkNetworkRoute, CompressedNetworkRoute. -->
		<param name="networkRouteType" value="LinkNetworkRoute" />
		<!-- (not tested) will remove plan attributes that are presumably not used, such as activityStartTime. default=false. Use with Caution! -->
		<param name="removingUnnecessaryPlanAttributes" value="false" />
	</module>
	<module name="planscalcroute" >
		<!-- Some typical teleportation routing params are set by default, such as for walk and bike.  Setting this switch to "true" will clear them.  Note that this will also clear settings for helper modes such as for non_network_walk -->
		<param name="clearDefaultTeleportedModeParams" value="false" />
		<!-- All the modes for which the router is supposed to generate network routes (like car) -->
		<param name="networkModes" value="car,car_passenger" />
		<!-- strength of the randomness for the utility of money in routing under toll.  Leads to Pareto-optimal route with randomly drawn money-vs-other-attributes tradeoff. Technically the width parameter of a log-normal distribution. 3.0 seems to be a good value.  -->
		<param name="routingRandomness" value="0.0" />
		<parameterset type="teleportedModeParameters" >
			<param name="beelineDistanceFactor" value="1.0" />
			<param name="mode" value="outside" />
			<!-- Free-speed factor for a teleported mode. Travel time = teleportedModeFreespeedFactor * <freespeed car travel time>. Insert a line like this for every such mode. Please do not set teleportedModeFreespeedFactor as well as teleportedModeSpeed for the same mode, but if you do, +teleportedModeFreespeedFactor wins over teleportedModeSpeed. -->
			<param name="teleportedModeFreespeedFactor" value="null" />
			<!-- Speed for a teleported mode. Travel time = (<beeline distance> * beelineDistanceFactor) / teleportedModeSpeed. Insert a line like this for every such mode. -->
			<param name="teleportedModeSpeed" value="1000.0" />
		</parameterset>
		<parameterset type="teleportedModeParameters" >
			<param name="beelineDistanceFactor" value="1.3" />
			<param name="mode" value="walk" />
			<param name="teleportedModeFreespeedFactor" value="null" />
			<param name="teleportedModeSpeed" value="1.2" />
		</parameterset>
	</module>
	<module name="ptCounts" >
		<!-- factor by which to re-scale the simulated values.  necessary when simulation runs with something different from 100%.  needs to be adapted manually -->
		<param name="countsScaleFactor" value="1.0" />
		<!-- distance to distanceFilterCenterNode to include counting stations. The unit of distance is the Euclidean distance implied by the coordinate system -->
		<param name="distanceFilter" value="null" />
		<!-- node id for center node of distance filter -->
		<param name="distanceFilterCenterNode" value="null" />
		<!-- input file containing the alighting (getting off) counts for pt -->
		<param name="inputAlightCountsFile" value="null" />
		<!-- input file containing the boarding (getting on) counts for pt -->
		<param name="inputBoardCountsFile" value="null" />
		<!-- input file containing the occupancy counts for pt -->
		<param name="inputOccupancyCountsFile" value="null" />
		<!-- possible values: `html', `kml', `txt', `all' -->
		<param name="outputformat" value="null" />
		<!-- every how many iterations (starting with 0) counts comparisons are generated -->
		<param name="ptCountsInterval" value="10" />
	</module>
	<module name="qsim" >
		<param name="endTime" value="30:00:00" />
		<param name="flowCapacityFactor" value="0.1" />
		<!-- decides if waiting vehicles enter the network after or before the already driving vehicles were moved. Default: false -->
		<param name="insertingWaitingVehiclesBeforeDrivingVehicles" value="true" />
		<!-- If link dynamics is set as SeepageQ, set to false if all seep modes should perform seepage. Default is true (better option). -->
		<param name="isRestrictingSeepage" value="true" />
		<!-- If link dynamics is set as SeepageQ, set to true if seep mode do not consumes any space on the link. Default is false. -->
		<param name="isSeepModeStorageFree" value="false" />
		<!-- default: FIFO; options: FIFO PassingQ SeepageQ -->
		<param name="linkDynamics" value="FIFO" />
		<!-- The (initial) width of the links of the network. Use positive floating point values. This is used only for visualisation. -->
		<param name="linkWidth" value="30.0" />
		<!-- [comma-separated list] Defines which modes are congested modes. Technically, these are the modes that the departure handler of the netsimengine handles.  Effective cell size, effective lane width, flow capacity factor, and storage capacity factor need to be set with diligence.  Need to be vehicular modes to make sense. -->
		<param name="mainMode" value="car" />
		<!-- Shortens a link in the visualization, i.e. its start and end point are moved into towards the center. Does not affect traffic flow.  -->
		<param name="nodeOffset" value="0.0" />
		<!-- Number of threads used for the QSim.  Note that this setting is independent from the "global" threads setting.  In contrast to earlier versions, the non-parallel special version is no longer there. -->
		<param name="numberOfThreads" value="12" />
		<!-- Boolean. `true': stuck vehicles are removed, aborting the plan; `false': stuck vehicles are forced into the next link. `false' is probably the better choice. -->
		<param name="removeStuckVehicles" value="false" />
		<!-- If link dynamics is set as SeepageQ, set a seep mode. Default is bike. -->
		<param name="seepMode" value="bike" />
		<!-- Possible values: minOfEndtimeAndMobsimFinished, onlyUseEndtime -->
		<param name="simEndtimeInterpretation" value="null" />
		<!-- Options: maxOfStarttimeAndEarliestActivityEnd onlyUseStarttime  -->
		<param name="simStarttimeInterpretation" value="maxOfStarttimeAndEarliestActivityEnd" />
		<!-- snapshotStyle. One of: equiDist queue withHoles withHolesAndShowHoles kinematicWaves  -->
		<param name="snapshotStyle" value="equiDist" />
		<param name="snapshotperiod" value="00:00:00" />
		<param name="startTime" value="undefined" />
		<param name="storageCapacityFactor" value="0.1" />
		<!-- time in seconds.  Time after which the frontmost vehicle on a link is called `stuck' if it does not move. -->
		<param name="stuckTime" value="10.0" />
		<param name="timeStepSize" value="00:00:01" />
		<!-- options: queue withHoles kinematicWaves  -->
		<param name="trafficDynamics" value="queue" />
		<!-- Set this parameter to true if lanes should be used, false if not. -->
		<param name="useLanes" value="false" />
		<!-- If a route does not reference a vehicle, agents will use the vehicle with the same id as their own. -->
		<param name="usePersonIdForMissingVehicleId" value="true" />
		<!-- If false, the qsim accumulates fractional flows up to one flow unit in every time step.  If true, flows are updated only if an agent wants to enter the link or an agent is added to buffer. Default is true. -->
		<param name="usingFastCapacityUpdate" value="true" />
		<!-- if the qsim should use as many runners as there are threads (Christoph's dissertation version) or more of them, together with a thread pool (seems to be faster in some situations, but is not tested). -->
		<param name="usingThreadpool" value="true" />
		<!-- Defines what happens if an agent wants to depart, but the specified vehicle is not available. One of: teleport wait exception  -->
		<param name="vehicleBehavior" value="teleport" />
		<!-- If vehicles should all be the same default vehicle, or come from the vehicles file, or something else.  Possible values:  defaultVehicle modeVehicleTypesFromVehiclesData fromVehiclesData -->
		<param name="vehiclesSource" value="defaultVehicle" />
	</module>
	<module name="strategy" >
		<!-- the external executable will be called with a config file as argument.  This is the pathname to a possible skeleton config, to which additional information will be added.  Can be null. -->
		<param name="ExternalExeConfigTemplate" value="null" />
		<!-- time out value (in seconds) after which matsim will consider the external strategy as failed -->
		<param name="ExternalExeTimeOut" value="3600" />
		<!-- root directory for temporary files generated by the external executable. Provided as a service; I don't think this is used by MATSim. -->
		<param name="ExternalExeTmpFileRootDir" value="null" />
		<!-- fraction of iterations where innovative strategies are switched off.  Something like 0.8 should be good.  E.g. if you run from iteration 400 to iteration 500, innovation is switched off at iteration 480 -->
		<param name="fractionOfIterationsToDisableInnovation" value="Infinity" />
		<!-- maximum number of plans per agent.  ``0'' means ``infinity''.  Currently (2010), ``5'' is a good number -->
		<param name="maxAgentPlanMemorySize" value="1" />
		<!-- strategyName of PlanSelector for plans removal.  Possible defaults: WorstPlanSelector SelectRandom SelectExpBetaForRemoval ChangeExpBetaForRemoval PathSizeLogitSelectorForRemoval . The current default, WorstPlanSelector is not a good choice from a discrete choice theoretical perspective. Alternatives, however, have not been systematically tested. kai, feb'12 -->
		<param name="planSelectorForRemoval" value="NonSelectedPlanSelector" />
		<parameterset type="strategysettings" >
			<!-- iteration after which strategy will be disabled.  most useful for ``innovative'' strategies (new routes, new times, ...). Normally, better use fractionOfIterationsToDisableInnovation -->
			<param name="disableAfterIteration" value="-1" />
			<!-- path to external executable (if applicable) -->
			<param name="executionPath" value="null" />
			<!-- strategyName of strategy.  Possible default names: SelectRandom BestScore KeepLastSelected ChangeExpBeta SelectExpBeta SelectPathSizeLogit      (selectors), ReRouteTimeAllocationMutatorTimeAllocationMutator_ReRouteChangeSingleTripModeChangeTripModeSubtourModeChoice (innovative strategies). -->
			<param name="strategyName" value="DiscreteModeChoice" />
			<!-- subpopulation to which the strategy applies. "null" refers to the default population, that is, the set of persons for which no explicit subpopulation is defined (ie no subpopulation attribute) -->
			<param name="subpopulation" value="null" />
			<!-- weight of a strategy: for each agent, a strategy will be selected with a probability proportional to its weight -->
			<param name="weight" value="0.05" />
		</parameterset>
		<parameterset type="strategysettings" >
			<param name="disableAfterIteration" value="-1" />
			<param name="executionPath" value="null" />
			<param name="strategyName" value="KeepLastSelected" />
			<param name="subpopulation" value="null" />
			<param name="weight" value="0.95" />
		</parameterset>
	</module>
	<module name="subtourModeChoice" >
		<!-- Only for backwards compatibility.  Defines if only trips from modes list should change mode, or all trips.  Options: fromAllModesToSpecifiedModes fromSpecifiedModesToSpecifiedModes  -->
		<param name="behavior" value="fromSpecifiedModesToSpecifiedModes" />
		<!-- Defines the chain-based modes, seperated by commas -->
		<param name="chainBasedModes" value="car" />
		<!-- Defines whether car availability must be considered or not. A agent has no car only if it has no license, or never access to a car -->
		<param name="considerCarAvailability" value="false" />
		<!-- Defines all the modes available, including chain-based modes, seperated by commas -->
		<param name="modes" value="car,pt,walk" />
	</module>
	<module name="swissRailRaptor" >
		<!-- Sets whether intermodal access and egress modes are selected by least cost (default) or randomly chosen out of the available access / egress modes. -->
		<param name="intermodalAccessEgressModeSelection" value="CalcLeastCostModePerStop" />
		<!-- Possible values: Default, Individual -->
		<param name="scoringParameters" value="Default" />
		<param name="transferPenaltyBaseCost" value="0.0" />
		<param name="transferPenaltyCostPerTravelTimeHour" value="0.0" />
		<param name="transferPenaltyMaxCost" value="Infinity" />
		<param name="transferPenaltyMinCost" value="-Infinity" />
		<param name="useIntermodalAccessEgress" value="false" />
		<param name="useModeMappingForPassengers" value="false" />
		<param name="useRangeQuery" value="false" />
	</module>
	<module name="transit" >
		<!-- The Coordinates Reference System in which the coordinates are expressed in the input file. At import, the coordinates will be converted to the coordinate system defined in "global", and willbe converted back at export. If not specified, no conversion happens. -->
		<param name="inputScheduleCRS" value="null" />
		<param name="insistingOnUsingDeprecatedAttributeFiles" value="false" />
		<!-- Optional input file containing additional attributes for transit lines, stored as ObjectAttributes. -->
		<param name="transitLinesAttributesFile" value="null" />
		<!-- Comma-separated list of transportation modes that are handled as transit. Defaults to 'pt'. -->
		<param name="transitModes" value="pt" />
		<!-- Input file containing the transit schedule to be simulated. -->
		<param name="transitScheduleFile" value="qctransit_schedule.xml.gz" />
		<!-- Optional input file containing additional attributes for transit stop facilities, stored as ObjectAttributes. -->
		<param name="transitStopsAttributesFile" value="null" />
		<!-- Set this parameter to true if transit should be simulated, false if not. -->
		<param name="useTransit" value="true" />
		<param name="usingTransitInMobsim" value="true" />
		<!-- Input file containing the vehicles used by the departures in the transit schedule. -->
		<param name="vehiclesFile" value="qctransit_vehicles.xml.gz" />
	</module>
	<module name="transitRouter" >
		<!-- additional time the router allocates when a line switch happens. Can be interpreted as a 'safety' time that agents need to safely transfer from one line to another -->
		<param name="additionalTransferTime" value="0.0" />
		<!-- Factor with which direct walk generalized cost is multiplied before it is compared to the pt generalized cost.  Set to a very high value to reduce direct walk results. -->
		<param name="directWalkFactor" value="1.0" />
		<!-- step size to increase searchRadius if no stops are found -->
		<param name="extensionRadius" value="200.0" />
		<!-- maximum beeline distance between stops that agents could transfer to by walking -->
		<param name="maxBeelineWalkConnectionDistance" value="100.0" />
		<!-- the radius in which stop locations are searched, given a start or target coordinate -->
		<param name="searchRadius" value="1000.0" />
	</module>
	<module name="travelTimeCalculator" >
		<!-- (only for backwards compatibility; only used if separateModes==false && + filterModes==true)  Transport modes that will be respected by the travel time collector. 'car' is default which includes also buses from the pt simulation module. -->
		<param name="analyzedModes" value="car,car_passenger" />
		<param name="calculateLinkToLinkTravelTimes" value="false" />
		<param name="calculateLinkTravelTimes" value="true" />
		<!-- (only for backwards compatiblity; only used if separateModes==false)  Only modes included in analyzedModes are included. -->
		<param name="filterModes" value="true" />
		<!-- The lenght (in sec) of the time period that is splited into time bins; an additional time bin is created to aggregate all travel times collected after maxTime -->
		<param name="maxTime" value="108000" />
		<!-- (only for backwards compatibility) If false, link travel times are measured and aggregated over all vehicles using the link. -->
		<param name="separateModes" value="false" />
		<!-- How to deal with congested time bins that have no link entry events. `optimistic' assumes free speed (too optimistic); 'experimental_LastMile' is experimental and probably too pessimistic. -->
		<param name="travelTimeAggregator" value="optimistic" />
		<!-- The size of the time bin (in sec) into which the link travel times are aggregated for the router -->
		<param name="travelTimeBinSize" value="900" />
		<!-- possible values: TravelTimeCalculatorArray TravelTimeCalculatorHashMap  -->
		<param name="travelTimeCalculator" value="TravelTimeCalculatorArray" />
		<!-- How to deal with link entry times at different positions during the time bin. Currently supported: average, linearinterpolation -->
		<param name="travelTimeGetter" value="average" />
	</module>
	<module name="vehicles" >
		<param name="vehiclesFile" value="null" />
	</module>
	<module name="vspExperimental" >
		<!-- (do not use except of you have to) There was a problem with pt interaction scoring.  Some people solved it by overwriting the parameters of the pt interaction activity type.  Doing this now throws an Exception.  If you still insist on doing this, set the following to true. -->
		<param name="isAbleToOverwritePtInteractionParams" value="false" />
		<param name="isGeneratingBoardingDeniedEvent" value="false" />
		<!-- if an approximation of the opportunity cost of time is included into the radius calculation for location choice.`true' will be faster, but it is an approximation.  Default is `true'; `false' is available for backwards compatibility. -->
		<param name="isUsingOpportunityCostOfTimeForLocationChoice" value="true" />
		<param name="logitScaleParamForPlansRemoval" value="1.0" />
		<!-- Options: | ignore | info | warn | abort | .  When violating VSP defaults, this results in nothing, logfile infos, logfile warnings, or aborts.  Members of VSP should use `abort' or talk to kai. -->
		<param name="vspDefaultsCheckingLevel" value="ignore" />
		<!-- if true then writes output_events in output directory.  default is `false'. Will only work when lastIteration is multiple of events writing interval -->
		<param name="writingOutputEvents" value="true" />
	</module>

</config>

2020-12-11T10:55:59,744  INFO ControlerUtils:84 Complete config dump done.
2020-12-11T10:55:59,744  INFO ControlerUtils:85 Checking consistency of config...
2020-12-11T10:55:59,745  INFO PlanCalcScoreConfigGroup$ScoringParameterSet:1528 NO OPENING OR CLOSING TIMES DEFINED!

There is no activity type that has an opening *and* closing time (or opening time and late penalty) defined.
This usually means that the activity chains can be shifted by an arbitrary
number of hours without having an effect on the score of the plans, and thus
resulting in wrong results / traffic patterns.
If you are using MATSim without time adaptation, you can ignore this warning.


2020-12-11T10:55:59,745  INFO VspConfigConsistencyCheckerImpl:58 NOT running vsp config consistency check because vsp defaults checking level is set to IGNORE
2020-12-11T10:55:59,750  INFO ControlerUtils:87 Checking consistency of config done.
2020-12-11T10:55:59,750  INFO PrepareForSimImpl:115 Network seems to be multimodal. Create car-only network which is handed over to PersonPrepareForSim.
2020-12-11T10:55:59,751  INFO NetworkImpl:163  node # 1
2020-12-11T10:55:59,751  INFO NetworkImpl:163  node # 4
2020-12-11T10:55:59,751  INFO NetworkImpl:163  node # 16
2020-12-11T10:55:59,751  INFO NetworkImpl:163  node # 64
2020-12-11T10:55:59,751  INFO NetworkImpl:163  node # 256
2020-12-11T10:55:59,752  INFO NetworkImpl:163  node # 1024
2020-12-11T10:55:59,754  INFO NetworkImpl:163  node # 4096
2020-12-11T10:55:59,758  INFO NetworkImpl:159  link # 1
2020-12-11T10:55:59,758  INFO NetworkImpl:159  link # 4
2020-12-11T10:55:59,758  INFO NetworkImpl:159  link # 16
2020-12-11T10:55:59,759  INFO NetworkImpl:159  link # 64
2020-12-11T10:55:59,760  INFO NetworkImpl:159  link # 256
2020-12-11T10:55:59,765  INFO NetworkImpl:159  link # 1024
2020-12-11T10:55:59,777  INFO NetworkImpl:159  link # 4096
2020-12-11T10:55:59,801  WARN XY2LinksForFacilities:50 There is no link for at least a facility. Assigning links for such facilities from coords.
2020-12-11T10:55:59,801  WARN XY2LinksForFacilities:51  This message given only once.
2020-12-11T10:55:59,805  INFO NetworkImpl:422 building QuadTree for nodes: xrange(243711.37878205546,288687.0598034958); yrange(5134896.288088568,5167356.337122668)
2020-12-11T10:55:59,816  INFO NetworkImpl:431 Building QuadTree took 0.014 seconds.
2020-12-11T10:56:00,845  WARN PrepareForSimImpl:222 'usePersonIdForMissingVehicleId' is deprecated. It will be removed soon.
2020-12-11T10:56:00,845  INFO Counter:69 [VehiclesImpl] added vehicle # 1
2020-12-11T10:56:00,845  INFO Counter:69 [VehiclesImpl] added vehicle # 2
2020-12-11T10:56:00,845  INFO Counter:69 [VehiclesImpl] added vehicle # 4
2020-12-11T10:56:00,846  INFO Counter:69 [VehiclesImpl] added vehicle # 8
2020-12-11T10:56:00,846  INFO Counter:69 [VehiclesImpl] added vehicle # 16
2020-12-11T10:56:00,846  INFO Counter:69 [VehiclesImpl] added vehicle # 32
2020-12-11T10:56:00,846  INFO Counter:69 [VehiclesImpl] added vehicle # 64
2020-12-11T10:56:00,847  INFO Counter:69 [VehiclesImpl] added vehicle # 128
2020-12-11T10:56:00,847  INFO Counter:69 [VehiclesImpl] added vehicle # 256
2020-12-11T10:56:00,849  INFO Counter:69 [VehiclesImpl] added vehicle # 512
2020-12-11T10:56:00,851  INFO Counter:69 [VehiclesImpl] added vehicle # 1024
2020-12-11T10:56:00,856  INFO Counter:69 [VehiclesImpl] added vehicle # 2048
2020-12-11T10:56:00,861  INFO Counter:69 [VehiclesImpl] added vehicle # 4096
2020-12-11T10:56:00,869  INFO Counter:69 [VehiclesImpl] added vehicle # 8192
2020-12-11T10:56:00,927  INFO EventsManagerImpl:158 adding Event-Handler: ch.sbb.matsim.routing.pt.raptor.SwissRailRaptorFactory$$Lambda$218/0x0000000840402440
2020-12-11T10:56:00,927  INFO EventsManagerImpl:162   org.matsim.pt.router.TransitScheduleChangedEventHandler
2020-12-11T10:56:00,927  INFO EventsManagerImpl:221     > org.matsim.pt.router.TransitScheduleChangedEvent
2020-12-11T10:56:00,927  INFO EventsManagerImpl:170 
2020-12-11T10:56:00,927  INFO EventsManagerImpl:158 adding Event-Handler: ch.sbb.matsim.routing.pt.raptor.SwissRailRaptorFactory$$Lambda$218/0x0000000840402440
2020-12-11T10:56:00,927  INFO EventsManagerImpl:162   org.matsim.pt.router.TransitScheduleChangedEventHandler
2020-12-11T10:56:00,927  INFO EventsManagerImpl:221     > org.matsim.pt.router.TransitScheduleChangedEvent
2020-12-11T10:56:00,927  INFO EventsManagerImpl:170 
2020-12-11T10:56:00,928  INFO SwissRailRaptorData:72 Preparing data for SwissRailRaptor...
2020-12-11T10:56:15,439  INFO SwissRailRaptorData:194 SwissRailRaptor data preparation done. Took 14 seconds.
2020-12-11T10:56:15,440  INFO SwissRailRaptorData:195 SwissRailRaptor statistics:  #routes = 2398
2020-12-11T10:56:15,440  INFO SwissRailRaptorData:196 SwissRailRaptor statistics:  #departures = 4493
2020-12-11T10:56:15,440  INFO SwissRailRaptorData:197 SwissRailRaptor statistics:  #routeStops = 124041
2020-12-11T10:56:15,440  INFO SwissRailRaptorData:198 SwissRailRaptor statistics:  #stopFacilities = 5743
2020-12-11T10:56:15,440  INFO SwissRailRaptorData:199 SwissRailRaptor statistics:  #transfers (between routeStops) = 3776042
2020-12-11T10:56:15,446  INFO NetworkImpl:163  node # 1
2020-12-11T10:56:15,446  INFO NetworkImpl:163  node # 4
2020-12-11T10:56:15,447  INFO NetworkImpl:163  node # 16
2020-12-11T10:56:15,447  INFO NetworkImpl:163  node # 64
2020-12-11T10:56:15,447  INFO NetworkImpl:163  node # 256
2020-12-11T10:56:15,447  INFO NetworkImpl:163  node # 1024
2020-12-11T10:56:15,449  INFO NetworkImpl:163  node # 4096
2020-12-11T10:56:15,451  INFO NetworkImpl:159  link # 1
2020-12-11T10:56:15,451  INFO NetworkImpl:159  link # 4
2020-12-11T10:56:15,451  INFO NetworkImpl:159  link # 16
2020-12-11T10:56:15,451  INFO NetworkImpl:159  link # 64
2020-12-11T10:56:15,452  INFO NetworkImpl:159  link # 256
2020-12-11T10:56:15,455  INFO NetworkImpl:159  link # 1024
2020-12-11T10:56:15,469  INFO NetworkImpl:159  link # 4096
2020-12-11T10:56:15,523  INFO PreProcessDijkstra:118 nodes in dead ends: 587 (total nodes: 2522). Done in 10 ms
2020-12-11T10:56:15,529  INFO PreProcessLandmarks:112 Putting landmarks on network...
2020-12-11T10:56:15,531  INFO LandmarkerPieSlices:96 Filling sectors...
2020-12-11T10:56:15,545  INFO LandmarkerPieSlices:107 Refining landmarks...
2020-12-11T10:56:15,546  INFO LandmarkerPieSlices:109 done
2020-12-11T10:56:15,546  INFO PreProcessLandmarks:115 done in 17 ms
2020-12-11T10:56:15,546  INFO PreProcessLandmarks:117 Initializing landmarks data
2020-12-11T10:56:15,551  INFO PreProcessLandmarks:129 Calculating distance from each node to each of the 16 landmarks using 16 threads...
2020-12-11T10:56:15,661  INFO PreProcessLandmarks:139 wait for landmarks Calculator to finish...
2020-12-11T10:56:15,694  INFO PreProcessLandmarks:161 done in 143 ms
2020-12-11T10:56:15,700  INFO NetworkImpl:163  node # 1
2020-12-11T10:56:15,700  INFO NetworkImpl:163  node # 4
2020-12-11T10:56:15,700  INFO NetworkImpl:163  node # 16
2020-12-11T10:56:15,700  INFO NetworkImpl:163  node # 64
2020-12-11T10:56:15,701  INFO NetworkImpl:163  node # 256
2020-12-11T10:56:15,701  INFO NetworkImpl:163  node # 1024
2020-12-11T10:56:15,703  INFO NetworkImpl:163  node # 4096
2020-12-11T10:56:15,705  INFO NetworkImpl:159  link # 1
2020-12-11T10:56:15,706  INFO NetworkImpl:159  link # 4
2020-12-11T10:56:15,706  INFO NetworkImpl:159  link # 16
2020-12-11T10:56:15,706  INFO NetworkImpl:159  link # 64
2020-12-11T10:56:15,707  INFO NetworkImpl:159  link # 256
2020-12-11T10:56:15,710  INFO NetworkImpl:159  link # 1024
2020-12-11T10:56:15,719  INFO NetworkImpl:159  link # 4096
2020-12-11T10:56:15,758  INFO PreProcessDijkstra:118 nodes in dead ends: 587 (total nodes: 2522). Done in 7 ms
2020-12-11T10:56:15,762  INFO PreProcessLandmarks:112 Putting landmarks on network...
2020-12-11T10:56:15,764  INFO LandmarkerPieSlices:96 Filling sectors...
2020-12-11T10:56:15,769  INFO LandmarkerPieSlices:107 Refining landmarks...
2020-12-11T10:56:15,769  INFO LandmarkerPieSlices:109 done
2020-12-11T10:56:15,769  INFO PreProcessLandmarks:115 done in 7 ms
2020-12-11T10:56:15,769  INFO PreProcessLandmarks:117 Initializing landmarks data
2020-12-11T10:56:15,771  INFO PreProcessLandmarks:129 Calculating distance from each node to each of the 16 landmarks using 16 threads...
2020-12-11T10:56:15,821  INFO PreProcessLandmarks:139 wait for landmarks Calculator to finish...
2020-12-11T10:56:15,833  INFO PreProcessLandmarks:161 done in 62 ms
2020-12-11T10:56:15,915  INFO Counter:69 [PersonPrepareForSim] handled person # 1
2020-12-11T10:56:15,921  INFO Counter:69 [PersonPrepareForSim] handled person # 2
2020-12-11T10:56:15,923  INFO Counter:69 [PersonPrepareForSim] handled person # 4
2020-12-11T10:56:15,941  INFO Counter:69 [PersonPrepareForSim] handled person # 8
2020-12-11T10:56:15,998  INFO Counter:69 [PersonPrepareForSim] handled person # 32
2020-12-11T10:56:15,978  INFO Counter:69 [PersonPrepareForSim] handled person # 16
2020-12-11T10:56:16,058  INFO Counter:69 [PersonPrepareForSim] handled person # 64
2020-12-11T10:56:16,114  INFO Counter:69 [PersonPrepareForSim] handled person # 128
2020-12-11T10:56:16,179  INFO Counter:69 [PersonPrepareForSim] handled person # 256
2020-12-11T10:56:16,303  INFO Counter:69 [PersonPrepareForSim] handled person # 512
2020-12-11T10:56:16,650  INFO Counter:69 [PersonPrepareForSim] handled person # 1024
2020-12-11T10:56:17,176  INFO Counter:69 [PersonPrepareForSim] handled person # 2048
2020-12-11T10:56:17,740  INFO Counter:69 [PersonPrepareForSim] handled person # 4096
2020-12-11T10:56:19,022  INFO Counter:74 [PersonPrepareForSim] handled person # 7651
2020-12-11T10:56:19,034  INFO AbstractController:124 ###################################################
2020-12-11T10:56:19,036  INFO AbstractController:125 ### ITERATION 0 BEGINS
2020-12-11T10:56:19,039  INFO ControlerListenerManagerImpl:145 calling notifyIterationStarts on org.matsim.analysis.LegHistogramListener
2020-12-11T10:56:19,039  INFO ControlerListenerManagerImpl:145 calling notifyIterationStarts on org.matsim.analysis.LinkStatsControlerListener
2020-12-11T10:56:19,039  INFO ControlerListenerManagerImpl:145 calling notifyIterationStarts on org.eqasim.core.simulation.analysis.AnalysisOutputListener
2020-12-11T10:56:19,040  INFO EventsManagerImpl:158 adding Event-Handler: org.eqasim.core.analysis.TripListener
2020-12-11T10:56:19,040  INFO EventsManagerImpl:162   org.matsim.api.core.v01.events.handler.ActivityStartEventHandler
2020-12-11T10:56:19,040  INFO EventsManagerImpl:221     > org.matsim.api.core.v01.events.ActivityStartEvent
2020-12-11T10:56:19,040  INFO EventsManagerImpl:162   org.matsim.api.core.v01.events.handler.ActivityEndEventHandler
2020-12-11T10:56:19,040  INFO EventsManagerImpl:221     > org.matsim.api.core.v01.events.ActivityEndEvent
2020-12-11T10:56:19,040  INFO EventsManagerImpl:162   org.matsim.api.core.v01.events.handler.PersonDepartureEventHandler
2020-12-11T10:56:19,040  INFO EventsManagerImpl:221     > org.matsim.api.core.v01.events.PersonDepartureEvent
2020-12-11T10:56:19,040  INFO EventsManagerImpl:162   org.matsim.api.core.v01.events.handler.PersonEntersVehicleEventHandler
2020-12-11T10:56:19,040  INFO EventsManagerImpl:221     > org.matsim.api.core.v01.events.PersonEntersVehicleEvent
2020-12-11T10:56:19,040  INFO EventsManagerImpl:162   org.matsim.api.core.v01.events.handler.PersonLeavesVehicleEventHandler
2020-12-11T10:56:19,041  INFO EventsManagerImpl:221     > org.matsim.api.core.v01.events.PersonLeavesVehicleEvent
2020-12-11T10:56:19,041  INFO EventsManagerImpl:162   org.matsim.api.core.v01.events.handler.LinkEnterEventHandler
2020-12-11T10:56:19,041  INFO EventsManagerImpl:221     > org.matsim.api.core.v01.events.LinkEnterEvent
2020-12-11T10:56:19,041  INFO EventsManagerImpl:162   org.matsim.core.api.experimental.events.handler.TeleportationArrivalEventHandler
2020-12-11T10:56:19,041  INFO EventsManagerImpl:221     > org.matsim.core.api.experimental.events.TeleportationArrivalEvent
2020-12-11T10:56:19,041  INFO EventsManagerImpl:162   org.matsim.api.core.v01.events.handler.GenericEventHandler
2020-12-11T10:56:19,042  INFO EventsManagerImpl:221     > org.matsim.api.core.v01.events.GenericEvent
2020-12-11T10:56:19,042  INFO EventsManagerImpl:170 
2020-12-11T10:56:19,042  INFO EventsManagerImpl:158 adding Event-Handler: org.eqasim.core.analysis.TripListener
2020-12-11T10:56:19,042  INFO EventsManagerImpl:162   org.matsim.api.core.v01.events.handler.ActivityStartEventHandler
2020-12-11T10:56:19,042  INFO EventsManagerImpl:221     > org.matsim.api.core.v01.events.ActivityStartEvent
2020-12-11T10:56:19,042  INFO EventsManagerImpl:162   org.matsim.api.core.v01.events.handler.ActivityEndEventHandler
2020-12-11T10:56:19,042  INFO EventsManagerImpl:221     > org.matsim.api.core.v01.events.ActivityEndEvent
2020-12-11T10:56:19,043  INFO EventsManagerImpl:162   org.matsim.api.core.v01.events.handler.PersonDepartureEventHandler
2020-12-11T10:56:19,043  INFO EventsManagerImpl:221     > org.matsim.api.core.v01.events.PersonDepartureEvent
2020-12-11T10:56:19,043  INFO EventsManagerImpl:162   org.matsim.api.core.v01.events.handler.PersonEntersVehicleEventHandler
2020-12-11T10:56:19,043  INFO EventsManagerImpl:221     > org.matsim.api.core.v01.events.PersonEntersVehicleEvent
2020-12-11T10:56:19,043  INFO EventsManagerImpl:162   org.matsim.api.core.v01.events.handler.PersonLeavesVehicleEventHandler
2020-12-11T10:56:19,043  INFO EventsManagerImpl:221     > org.matsim.api.core.v01.events.PersonLeavesVehicleEvent
2020-12-11T10:56:19,043  INFO EventsManagerImpl:162   org.matsim.api.core.v01.events.handler.LinkEnterEventHandler
2020-12-11T10:56:19,043  INFO EventsManagerImpl:221     > org.matsim.api.core.v01.events.LinkEnterEvent
2020-12-11T10:56:19,043  INFO EventsManagerImpl:162   org.matsim.core.api.experimental.events.handler.TeleportationArrivalEventHandler
2020-12-11T10:56:19,043  INFO EventsManagerImpl:221     > org.matsim.core.api.experimental.events.TeleportationArrivalEvent
2020-12-11T10:56:19,043  INFO EventsManagerImpl:162   org.matsim.api.core.v01.events.handler.GenericEventHandler
2020-12-11T10:56:19,043  INFO EventsManagerImpl:221     > org.matsim.api.core.v01.events.GenericEvent
2020-12-11T10:56:19,043  INFO EventsManagerImpl:170 
2020-12-11T10:56:19,043  INFO ControlerListenerManagerImpl:145 calling notifyIterationStarts on org.matsim.core.replanning.ReplanningContextImpl
2020-12-11T10:56:19,043  INFO ControlerListenerManagerImpl:145 calling notifyIterationStarts on org.matsim.core.scoring.ScoringFunctionsForPopulation$1
2020-12-11T10:56:19,081  INFO ControlerListenerManagerImpl:145 calling notifyIterationStarts on org.matsim.core.scoring.ExperiencedPlansServiceImpl$1
2020-12-11T10:56:19,086  INFO ControlerListenerManagerImpl:148 [it.0] all ControlerIterationStartsListeners called.
2020-12-11T10:56:19,088  INFO ControlerListenerManagerImpl:224 calling notifyBeforeMobsim on org.matsim.core.controler.corelisteners.EventsHandlingImpl
2020-12-11T10:56:19,088  INFO EventsManagerImpl:184 resetting Event-Handlers
2020-12-11T10:56:19,088  INFO EventsManagerImpl:191   org.matsim.core.trafficmonitoring.TravelTimeCalculator
2020-12-11T10:56:19,091  INFO EventsManagerImpl:191   org.matsim.core.scoring.EventsToLegsAndActivities
2020-12-11T10:56:19,092  INFO EventsManagerImpl:191   org.eqasim.core.analysis.TripListener
2020-12-11T10:56:19,092  INFO EventsManagerImpl:191   org.matsim.analysis.VolumesAnalyzer
2020-12-11T10:56:19,092  INFO EventsManagerImpl:191   org.matsim.core.scoring.ScoringFunctionsForPopulation
2020-12-11T10:56:19,092  INFO EventsManagerImpl:191   org.matsim.analysis.LegHistogram
2020-12-11T10:56:19,092  INFO EventsManagerImpl:191   org.matsim.analysis.CalcLegTimes
2020-12-11T10:56:19,092  INFO EventsManagerImpl:191   ch.sbb.matsim.routing.pt.raptor.SwissRailRaptorFactory$$Lambda$218/0x0000000840402440
2020-12-11T10:56:19,098  INFO EventsManagerImpl:158 adding Event-Handler: org.matsim.core.events.algorithms.EventWriterXML
2020-12-11T10:56:19,098  INFO EventsManagerImpl:162   org.matsim.core.events.algorithms.EventWriter
2020-12-11T10:56:19,098  INFO EventsManagerImpl:162   org.matsim.core.events.handler.BasicEventHandler
2020-12-11T10:56:19,098  INFO EventsManagerImpl:221     > org.matsim.api.core.v01.events.Event
2020-12-11T10:56:19,098  INFO EventsManagerImpl:170 
2020-12-11T10:56:19,098  INFO EventsManagerImpl:158 adding Event-Handler: org.matsim.core.events.algorithms.EventWriterXML
2020-12-11T10:56:19,098  INFO EventsManagerImpl:162   org.matsim.core.events.algorithms.EventWriter
2020-12-11T10:56:19,098  INFO EventsManagerImpl:162   org.matsim.core.events.handler.BasicEventHandler
2020-12-11T10:56:19,099  INFO EventsManagerImpl:221     > org.matsim.api.core.v01.events.Event
2020-12-11T10:56:19,099  INFO EventsManagerImpl:170 
2020-12-11T10:56:19,099  INFO ControlerListenerManagerImpl:224 calling notifyBeforeMobsim on org.matsim.core.controler.corelisteners.PlansDumpingImpl
2020-12-11T10:56:19,099  INFO PlansDumpingImpl:76 dumping plans...
2020-12-11T10:56:19,111  WARN ObjectAttributesConverter:77 No AttributeConverter found for class java.util.Collections$UnmodifiableMap. Not all attribute values can be converted.
2020-12-11T10:56:19,167  INFO Counter:69 [PopulationWriter] dumped person # 1
2020-12-11T10:56:19,167  INFO Counter:69 [PopulationWriter] dumped person # 2
2020-12-11T10:56:19,168  INFO Counter:69 [PopulationWriter] dumped person # 4
2020-12-11T10:56:19,169  INFO Counter:69 [PopulationWriter] dumped person # 8
2020-12-11T10:56:19,171  INFO Counter:69 [PopulationWriter] dumped person # 16
2020-12-11T10:56:19,186  INFO Counter:69 [PopulationWriter] dumped person # 32
2020-12-11T10:56:19,199  INFO Counter:69 [PopulationWriter] dumped person # 64
2020-12-11T10:56:19,218  INFO Counter:69 [PopulationWriter] dumped person # 128
2020-12-11T10:56:19,274  INFO Counter:69 [PopulationWriter] dumped person # 256
2020-12-11T10:56:19,364  INFO Counter:69 [PopulationWriter] dumped person # 512
2020-12-11T10:56:19,492  INFO Counter:69 [PopulationWriter] dumped person # 1024
2020-12-11T10:56:19,681  INFO Counter:69 [PopulationWriter] dumped person # 2048
2020-12-11T10:56:19,881  INFO Counter:69 [PopulationWriter] dumped person # 4096
2020-12-11T10:56:20,230  INFO PopulationWriter:144 Population written to: simulation_output/ITERS/it.0/0.plans.xml.gz
2020-12-11T10:56:20,231  INFO Counter:74 [PopulationWriter] dumped person # 7651
2020-12-11T10:56:20,232  INFO PlansDumpingImpl:93 finished plans dump.
2020-12-11T10:56:20,232  INFO ControlerListenerManagerImpl:229 calling notifyBeforeMobsim on org.matsim.core.population.VspPlansCleaner
2020-12-11T10:56:20,254  INFO ControlerListenerManagerImpl:232 [it.0] all ControlerBeforeMobsimListeners called.
2020-12-11T10:56:20,254  INFO PrepareForMobsimImpl:83 Network seems to be multimodal. Create car-only network which is handed over to PersonPrepareForSim.
2020-12-11T10:56:20,255  INFO NetworkImpl:163  node # 1
2020-12-11T10:56:20,255  INFO NetworkImpl:163  node # 4
2020-12-11T10:56:20,255  INFO NetworkImpl:163  node # 16
2020-12-11T10:56:20,255  INFO NetworkImpl:163  node # 64
2020-12-11T10:56:20,255  INFO NetworkImpl:163  node # 256
2020-12-11T10:56:20,256  INFO NetworkImpl:163  node # 1024
2020-12-11T10:56:20,258  INFO NetworkImpl:163  node # 4096
2020-12-11T10:56:20,260  INFO NetworkImpl:159  link # 1
2020-12-11T10:56:20,261  INFO NetworkImpl:159  link # 4
2020-12-11T10:56:20,261  INFO NetworkImpl:159  link # 16
2020-12-11T10:56:20,261  INFO NetworkImpl:159  link # 64
2020-12-11T10:56:20,262  INFO NetworkImpl:159  link # 256
2020-12-11T10:56:20,264  INFO NetworkImpl:159  link # 1024
2020-12-11T10:56:20,270  INFO NetworkImpl:159  link # 4096
2020-12-11T10:56:20,328  INFO Counter:69 [PersonPrepareForSim] handled person # 4
2020-12-11T10:56:20,327  INFO Counter:69 [PersonPrepareForSim] handled person # 1
2020-12-11T10:56:20,327  INFO Counter:69 [PersonPrepareForSim] handled person # 2
2020-12-11T10:56:20,328  INFO Counter:69 [PersonPrepareForSim] handled person # 32
2020-12-11T10:56:20,328  INFO Counter:69 [PersonPrepareForSim] handled person # 16
2020-12-11T10:56:20,329  INFO Counter:69 [PersonPrepareForSim] handled person # 64
2020-12-11T10:56:20,329  INFO Counter:69 [PersonPrepareForSim] handled person # 128
2020-12-11T10:56:20,330  INFO Counter:69 [PersonPrepareForSim] handled person # 256
2020-12-11T10:56:20,332  INFO Counter:69 [PersonPrepareForSim] handled person # 512
2020-12-11T10:56:20,333  INFO Counter:69 [PersonPrepareForSim] handled person # 8
2020-12-11T10:56:20,335  INFO Counter:69 [PersonPrepareForSim] handled person # 1024
2020-12-11T10:56:20,340  INFO Counter:69 [PersonPrepareForSim] handled person # 2048
2020-12-11T10:56:20,353  INFO Counter:69 [PersonPrepareForSim] handled person # 4096
2020-12-11T10:56:20,370  INFO Counter:74 [PersonPrepareForSim] handled person # 7651
2020-12-11T10:56:20,445  INFO MobsimListenerManager:49 calling addQueueSimulationListener
2020-12-11T10:56:20,446  INFO MobsimListenerManager:53   assigned class org.matsim.core.mobsim.framework.listeners.MobsimListener to interface org.matsim.vis.snapshotwriters.SnapshotWriterManager
2020-12-11T10:56:20,446  INFO MobsimListenerManager:53   assigned class org.matsim.core.mobsim.framework.listeners.MobsimListener to interface org.matsim.core.mobsim.framework.listeners.MobsimListener
2020-12-11T10:56:20,446  INFO MobsimListenerManager:53   assigned class org.matsim.core.mobsim.framework.listeners.MobsimListener to interface org.matsim.core.mobsim.framework.listeners.MobsimAfterSimStepListener
2020-12-11T10:56:20,446  INFO MobsimListenerManager:53   assigned class org.matsim.core.mobsim.framework.listeners.MobsimListener to interface org.matsim.core.mobsim.framework.listeners.MobsimInitializedListener
2020-12-11T10:56:20,446  INFO MobsimListenerManager:53   assigned class org.matsim.core.mobsim.framework.listeners.MobsimListener to interface org.matsim.core.mobsim.framework.listeners.MobsimBeforeCleanupListener
2020-12-11T10:56:20,552  WARN QueueWithBuffer:390 Link pt_0-1014_pt_0-1015 too small: enlarge storage capacity from: 7.770294297641648 Vehicles to: 16.18649430877476 Vehicles.  This is not fatal, but modifies the traffic flow dynamics.
2020-12-11T10:56:20,552  WARN QueueWithBuffer:390 Link pt_0-1015_pt_0-1016 too small: enlarge storage capacity from: 3.560512587921293 Vehicles to: 14.833985569427087 Vehicles.  This is not fatal, but modifies the traffic flow dynamics.
2020-12-11T10:56:20,552  WARN QueueWithBuffer:390 Link pt_0-1022_pt_0-1024 too small: enlarge storage capacity from: 3.8863847882701794 Vehicles to: 16.191650624130634 Vehicles.  This is not fatal, but modifies the traffic flow dynamics.
2020-12-11T10:56:20,552  WARN QueueWithBuffer:390 Link pt_0-1022_pt_0-2562 too small: enlarge storage capacity from: 3.680433631724637 Vehicles to: 25.556011030287944 Vehicles.  This is not fatal, but modifies the traffic flow dynamics.
2020-12-11T10:56:20,552  WARN QueueWithBuffer:390 Link pt_0-1022_pt_0-5601 too small: enlarge storage capacity from: 2.6885182042154727 Vehicles to: 28.00259742078178 Vehicles.  This is not fatal, but modifies the traffic flow dynamics.
2020-12-11T10:56:20,553  WARN QueueWithBuffer:390 Link pt_0-1022_pt_0-5806 too small: enlarge storage capacity from: 2.143495899085419 Vehicles to: 22.32584947391157 Vehicles.  This is not fatal, but modifies the traffic flow dynamics.
2020-12-11T10:56:20,553  WARN QueueWithBuffer:390 Link pt_0-1022_pt_0-5807 too small: enlarge storage capacity from: 2.2265636126228574 Vehicles to: 23.191051627724946 Vehicles.  This is not fatal, but modifies the traffic flow dynamics.
2020-12-11T10:56:20,553  WARN QueueWithBuffer:390 Link pt_0-1022_pt_0-5808 too small: enlarge storage capacity from: 2.3708487174362403 Vehicles to: 24.693871172546835 Vehicles.  This is not fatal, but modifies the traffic flow dynamics.
2020-12-11T10:56:20,553  WARN QueueWithBuffer:390 Link pt_0-1026_pt_0-1028 too small: enlarge storage capacity from: 3.3706998943213815 Vehicles to: 14.043178434716452 Vehicles.  This is not fatal, but modifies the traffic flow dynamics.
2020-12-11T10:56:20,553  WARN QueueWithBuffer:390 Link pt_0-1028_pt_0-1032 too small: enlarge storage capacity from: 2.338365841421632 Vehicles to: 24.355541717057186 Vehicles.  This is not fatal, but modifies the traffic flow dynamics.
2020-12-11T10:56:20,553  WARN QueueWithBuffer:390 Link pt_0-1028_pt_0-1263 too small: enlarge storage capacity from: 2.1289508754718236 Vehicles to: 22.174353962336212 Vehicles.  This is not fatal, but modifies the traffic flow dynamics.
2020-12-11T10:56:20,553  WARN QueueWithBuffer:393 Additional warnings of this type are suppressed.
2020-12-11T10:56:20,601  INFO QSimProvider:102 Added MobsimEngine class org.matsim.core.mobsim.qsim.ActivityEngineDefaultImpl
2020-12-11T10:56:20,601  INFO QSimProvider:108 Added Activityhandler class org.matsim.core.mobsim.qsim.ActivityEngineDefaultImpl
2020-12-11T10:56:20,602  INFO QSimProvider:114 Added DepartureHandler class org.matsim.core.mobsim.qsim.qnetsimengine.VehicularDepartureHandler
2020-12-11T10:56:20,602  INFO QSimProvider:102 Added MobsimEngine class org.matsim.core.mobsim.qsim.qnetsimengine.QNetsimEngineWithThreadpool
2020-12-11T10:56:20,602  INFO QSimProvider:102 Added MobsimEngine class org.matsim.core.mobsim.qsim.DefaultTeleportationEngine
2020-12-11T10:56:20,602  INFO QSimProvider:114 Added DepartureHandler class org.matsim.core.mobsim.qsim.DefaultTeleportationEngine
2020-12-11T10:56:20,602  INFO QSimProvider:120 Added AgentSource class org.matsim.core.mobsim.qsim.agents.PopulationAgentSource
2020-12-11T10:56:20,602  INFO MobsimListenerManager:49 calling addQueueSimulationListener
2020-12-11T10:56:20,602  INFO MobsimListenerManager:53   assigned class org.matsim.core.mobsim.framework.listeners.MobsimListener to interface org.matsim.core.mobsim.framework.listeners.MobsimBeforeSimStepListener
2020-12-11T10:56:20,602  INFO MobsimListenerManager:53   assigned class org.matsim.core.mobsim.framework.listeners.MobsimListener to interface org.matsim.core.mobsim.framework.listeners.MobsimListener
2020-12-11T10:56:20,602  INFO MobsimListenerManager:53   assigned class org.matsim.core.mobsim.framework.listeners.MobsimListener to interface org.matsim.core.mobsim.qsim.messagequeueengine.MessageQueueEngine
2020-12-11T10:56:20,603  INFO QSimProvider:126 Added MobsimListener class org.matsim.core.mobsim.qsim.messagequeueengine.MessageQueueEngine
2020-12-11T10:56:20,603  INFO QSimProvider:102 Added MobsimEngine class org.eqasim.core.components.transit.EqasimTransitEngine
2020-12-11T10:56:20,604  INFO QSimProvider:114 Added DepartureHandler class org.eqasim.core.components.transit.EqasimTransitEngine
2020-12-11T10:56:20,614  INFO PopulationUtils:1194 adding scenario element for allpersons container
2020-12-11T10:56:20,614  INFO PopulationImpl:105  person # 1
2020-12-11T10:56:20,615  INFO PopulationImpl:105  person # 4
2020-12-11T10:56:20,615  INFO PopulationImpl:105  person # 16
2020-12-11T10:56:20,616  INFO PopulationImpl:105  person # 64
2020-12-11T10:56:20,619  INFO PopulationImpl:105  person # 256
2020-12-11T10:56:20,625  INFO PopulationImpl:105  person # 1024
2020-12-11T10:56:20,636  INFO PopulationImpl:105  person # 4096
2020-12-11T10:56:20,651  INFO VehicleUtils:328 adding scenario element for allvehicles container
2020-12-11T10:56:20,652  INFO Counter:69 [VehiclesImpl] added vehicle # 1
2020-12-11T10:56:20,652  INFO Counter:69 [VehiclesImpl] added vehicle # 2
2020-12-11T10:56:20,652  INFO Counter:69 [VehiclesImpl] added vehicle # 4
2020-12-11T10:56:20,652  INFO Counter:69 [VehiclesImpl] added vehicle # 8
2020-12-11T10:56:20,652  INFO Counter:69 [VehiclesImpl] added vehicle # 16
2020-12-11T10:56:20,653  INFO Counter:69 [VehiclesImpl] added vehicle # 32
2020-12-11T10:56:20,653  INFO Counter:69 [VehiclesImpl] added vehicle # 64
2020-12-11T10:56:20,655  INFO Counter:69 [VehiclesImpl] added vehicle # 128
2020-12-11T10:56:20,657  INFO Counter:69 [VehiclesImpl] added vehicle # 256
2020-12-11T10:56:20,660  INFO Counter:69 [VehiclesImpl] added vehicle # 512
2020-12-11T10:56:20,665  INFO Counter:69 [VehiclesImpl] added vehicle # 1024
2020-12-11T10:56:20,672  INFO Counter:69 [VehiclesImpl] added vehicle # 2048
2020-12-11T10:56:20,708  INFO AbstractQNetsimEngine:427 Assigned 681 nodes and 1506 links to QSimEngineRunner #0
2020-12-11T10:56:20,708  INFO AbstractQNetsimEngine:427 Assigned 681 nodes and 1514 links to QSimEngineRunner #1
2020-12-11T10:56:20,708  INFO AbstractQNetsimEngine:427 Assigned 680 nodes and 1481 links to QSimEngineRunner #2
2020-12-11T10:56:20,708  INFO AbstractQNetsimEngine:427 Assigned 680 nodes and 1509 links to QSimEngineRunner #3
2020-12-11T10:56:20,708  INFO AbstractQNetsimEngine:427 Assigned 680 nodes and 1490 links to QSimEngineRunner #4
2020-12-11T10:56:20,708  INFO AbstractQNetsimEngine:427 Assigned 680 nodes and 1476 links to QSimEngineRunner #5
2020-12-11T10:56:20,708  INFO AbstractQNetsimEngine:427 Assigned 680 nodes and 1489 links to QSimEngineRunner #6
2020-12-11T10:56:20,708  INFO AbstractQNetsimEngine:427 Assigned 680 nodes and 1479 links to QSimEngineRunner #7
2020-12-11T10:56:20,708  INFO AbstractQNetsimEngine:427 Assigned 680 nodes and 1498 links to QSimEngineRunner #8
2020-12-11T10:56:20,708  INFO AbstractQNetsimEngine:427 Assigned 680 nodes and 1487 links to QSimEngineRunner #9
2020-12-11T10:56:20,708  INFO AbstractQNetsimEngine:427 Assigned 680 nodes and 1471 links to QSimEngineRunner #10
2020-12-11T10:56:20,708  INFO AbstractQNetsimEngine:427 Assigned 680 nodes and 1503 links to QSimEngineRunner #11
2020-12-11T10:56:20,723  INFO EventsManagerImpl:135  event # 1
2020-12-11T10:56:20,729  INFO EventsManagerImpl:135  event # 4
2020-12-11T10:56:20,730  INFO EventsManagerImpl:135  event # 16
2020-12-11T10:56:20,739  INFO EventsManagerImpl:135  event # 64
[...]
2020-12-11T11:03:07,433  INFO VehicularDepartureHandler:110 teleport vehicle 729772 from link 4933 to link 2844
2020-12-11T11:03:07,434  INFO AbstractQNetsimEngine:365 SIMULATION (QNetsimEngine) AT 13:00:00 : #links=15 #nodes=8
2020-12-11T11:03:07,434  INFO QSim:549 SIMULATION (NEW QSim) AT 13:00:00 : #Veh=5286 lost=0 simT=32400.0s realT=2s; (s/r): 16200.0
2020-12-11T11:03:07,658  INFO AbstractQNetsimEngine:365 SIMULATION (QNetsimEngine) AT 14:00:00 : #links=15 #nodes=6
2020-12-11T11:03:07,658  INFO QSim:549 SIMULATION (NEW QSim) AT 14:00:00 : #Veh=5150 lost=0 simT=36000.0s realT=2s; (s/r): 18000.0
2020-12-11T11:03:07,680  INFO VehicularDepartureHandler:110 teleport vehicle 725790 from link 2844 to link 4933
2020-12-11T11:03:07,882  INFO VehicularDepartureHandler:110 teleport vehicle 727512 from link 2844 to link 4933
2020-12-11T11:03:07,884  INFO AbstractQNetsimEngine:365 SIMULATION (QNetsimEngine) AT 15:00:00 : #links=19 #nodes=5
2020-12-11T11:03:07,884  INFO QSim:549 SIMULATION (NEW QSim) AT 15:00:00 : #Veh=4931 lost=0 simT=39600.0s realT=2s; (s/r): 19800.0
2020-12-11T11:03:07,970  INFO VehicularDepartureHandler:110 teleport vehicle 219723 from link 2844 to link 4731
2020-12-11T11:03:08,152  INFO AbstractQNetsimEngine:365 SIMULATION (QNetsimEngine) AT 16:00:00 : #links=37 #nodes=7
2020-12-11T11:03:08,152  INFO QSim:549 SIMULATION (NEW QSim) AT 16:00:00 : #Veh=4322 lost=0 simT=43200.0s realT=3s; (s/r): 14400.0
2020-12-11T11:03:08,233  INFO VehicularDepartureHandler:110 teleport vehicle 696304 from link 2844 to link 4933
2020-12-11T11:03:08,316  INFO VehicularDepartureHandler:110 teleport vehicle 227828 from link 2844 to link 4933
2020-12-11T11:03:08,316  INFO VehicularDepartureHandler:112 No more occurrences of teleported vehicles will be reported.
2020-12-11T11:03:08,493  INFO AbstractQNetsimEngine:365 SIMULATION (QNetsimEngine) AT 17:00:00 : #links=42 #nodes=14
2020-12-11T11:03:08,493  INFO QSim:549 SIMULATION (NEW QSim) AT 17:00:00 : #Veh=3208 lost=0 simT=46800.0s realT=3s; (s/r): 15600.0
2020-12-11T11:03:08,822  INFO AbstractQNetsimEngine:365 SIMULATION (QNetsimEngine) AT 18:00:00 : #links=28 #nodes=12
2020-12-11T11:03:08,823  INFO QSim:549 SIMULATION (NEW QSim) AT 18:00:00 : #Veh=2180 lost=0 simT=50400.0s realT=3s; (s/r): 16800.0
2020-12-11T11:03:09,122  INFO AbstractQNetsimEngine:365 SIMULATION (QNetsimEngine) AT 19:00:00 : #links=18 #nodes=6
2020-12-11T11:03:09,122  INFO QSim:549 SIMULATION (NEW QSim) AT 19:00:00 : #Veh=1664 lost=0 simT=54000.0s realT=4s; (s/r): 13500.0
2020-12-11T11:03:09,400  INFO AbstractQNetsimEngine:365 SIMULATION (QNetsimEngine) AT 20:00:00 : #links=11 #nodes=4
2020-12-11T11:03:09,400  INFO QSim:549 SIMULATION (NEW QSim) AT 20:00:00 : #Veh=1289 lost=0 simT=57600.0s realT=4s; (s/r): 14400.0
2020-12-11T11:03:09,626  INFO AbstractQNetsimEngine:365 SIMULATION (QNetsimEngine) AT 21:00:00 : #links=11 #nodes=5
2020-12-11T11:03:09,627  INFO QSim:549 SIMULATION (NEW QSim) AT 21:00:00 : #Veh=921 lost=0 simT=61200.0s realT=4s; (s/r): 15300.0
2020-12-11T11:03:09,850  INFO AbstractQNetsimEngine:365 SIMULATION (QNetsimEngine) AT 22:00:00 : #links=9 #nodes=5
2020-12-11T11:03:09,850  INFO QSim:549 SIMULATION (NEW QSim) AT 22:00:00 : #Veh=583 lost=0 simT=64800.0s realT=4s; (s/r): 16200.0
2020-12-11T11:03:10,037  INFO AbstractQNetsimEngine:365 SIMULATION (QNetsimEngine) AT 23:00:00 : #links=6 #nodes=3
2020-12-11T11:03:10,037  INFO QSim:549 SIMULATION (NEW QSim) AT 23:00:00 : #Veh=349 lost=0 simT=68400.0s realT=4s; (s/r): 17100.0
2020-12-11T11:03:10,214  INFO AbstractQNetsimEngine:365 SIMULATION (QNetsimEngine) AT 24:00:00 : #links=11 #nodes=2
2020-12-11T11:03:10,214  INFO QSim:549 SIMULATION (NEW QSim) AT 24:00:00 : #Veh=158 lost=0 simT=72000.0s realT=5s; (s/r): 14400.0
2020-12-11T11:03:10,371  INFO AbstractQNetsimEngine:365 SIMULATION (QNetsimEngine) AT 25:00:00 : #links=0 #nodes=0
2020-12-11T11:03:10,371  INFO QSim:549 SIMULATION (NEW QSim) AT 25:00:00 : #Veh=81 lost=0 simT=75600.0s realT=5s; (s/r): 15120.0
2020-12-11T11:03:10,520  INFO AbstractQNetsimEngine:365 SIMULATION (QNetsimEngine) AT 26:00:00 : #links=0 #nodes=0
2020-12-11T11:03:10,520  INFO QSim:549 SIMULATION (NEW QSim) AT 26:00:00 : #Veh=58 lost=0 simT=79200.0s realT=5s; (s/r): 15840.0
2020-12-11T11:03:10,673  INFO AbstractQNetsimEngine:365 SIMULATION (QNetsimEngine) AT 27:00:00 : #links=0 #nodes=0
2020-12-11T11:03:10,673  INFO QSim:549 SIMULATION (NEW QSim) AT 27:00:00 : #Veh=39 lost=0 simT=82800.0s realT=5s; (s/r): 16560.0
2020-12-11T11:03:10,824  INFO AbstractQNetsimEngine:365 SIMULATION (QNetsimEngine) AT 28:00:00 : #links=0 #nodes=0
2020-12-11T11:03:10,825  INFO QSim:549 SIMULATION (NEW QSim) AT 28:00:00 : #Veh=33 lost=0 simT=86400.0s realT=5s; (s/r): 17280.0
2020-12-11T11:03:10,978  INFO AbstractQNetsimEngine:365 SIMULATION (QNetsimEngine) AT 29:00:00 : #links=0 #nodes=0
2020-12-11T11:03:10,978  INFO QSim:549 SIMULATION (NEW QSim) AT 29:00:00 : #Veh=28 lost=0 simT=90000.0s realT=5s; (s/r): 18000.0
2020-12-11T11:03:11,132  INFO AbstractQNetsimEngine:365 SIMULATION (QNetsimEngine) AT 30:00:00 : #links=0 #nodes=0
2020-12-11T11:03:11,132  INFO QSim:549 SIMULATION (NEW QSim) AT 30:00:00 : #Veh=21 lost=0 simT=93600.0s realT=6s; (s/r): 15600.0
2020-12-11T11:03:11,135  INFO AbstractController$9:221 ### ITERATION 60 fires after mobsim event
2020-12-11T11:03:11,135  INFO Gbl:191 Thread performance: Thread=class org.matsim.core.events.SimStepParallelEventsManagerImpl$ProcessEventsRunnable0  cpu-time=2.504282835sec
2020-12-11T11:03:11,135  INFO ControlerListenerManagerImpl:248 calling notifyAfterMobsim on org.matsim.analysis.LegTimesControlerListener
2020-12-11T11:03:11,136  INFO LegTimesControlerListener:50 [60] average trip (probably: leg) duration is: 869 seconds = 00:14:29
2020-12-11T11:03:11,136  INFO ControlerListenerManagerImpl:248 calling notifyAfterMobsim on org.matsim.core.scoring.EventsToActivities$1
2020-12-11T11:03:11,144  INFO ControlerListenerManagerImpl:251 [it.60] all ControlerAfterMobsimListeners called.
2020-12-11T11:03:11,145  INFO AbstractController$4:150 ### ITERATION 60 fires scoring event
2020-12-11T11:03:11,145  INFO ControlerListenerManagerImpl:183 calling notifyScoring on org.matsim.core.scoring.PlansScoringImpl
2020-12-11T11:03:11,148  INFO NewScoreAssignerImpl:57 it: 60 msaStart: null
2020-12-11T11:03:11,150  INFO ControlerListenerManagerImpl:194 [it.60] all ControlerScoringListeners called.
2020-12-11T11:03:11,150  INFO AbstractController$5:158 ### ITERATION 60 fires iteration end event
2020-12-11T11:03:11,150  INFO ControlerListenerManagerImpl:160 calling notifyIterationEnds on org.matsim.core.controler.corelisteners.EventsHandlingImpl
2020-12-11T11:03:11,151  INFO EventsManagerImpl:175 removing Event-Handler: org.matsim.core.events.algorithms.EventWriterXML
2020-12-11T11:03:11,151  INFO EventsManagerImpl:175 removing Event-Handler: org.matsim.core.events.algorithms.EventWriterXML
2020-12-11T11:03:11,151  INFO ControlerListenerManagerImpl:160 calling notifyIterationEnds on org.matsim.core.scoring.PlansScoringImpl
2020-12-11T11:03:11,153  INFO ControlerListenerManagerImpl:167 calling notifyIterationEnds on org.matsim.counts.CountsControlerListener
2020-12-11T11:03:11,154  INFO CountSimComparisonTableWriter:93 Writing CountsSimComparison to simulation_output/ITERS/it.60/60.countscompare.txt
2020-12-11T11:03:11,154  INFO CountSimComparisonTableWriter:134 Writing 'average weekday traffic volume' to simulation_output/ITERS/it.60/60.countscompareAWTV.txt
2020-12-11T11:03:11,154  INFO ControlerListenerManagerImpl:167 calling notifyIterationEnds on org.matsim.analysis.ModeStatsControlerListener
2020-12-11T11:03:11,169  INFO ModeStatsControlerListener:142 Mode shares over all 18727.0 trips found. MainModeIdentifier: class org.matsim.core.router.RoutingModeMainModeIdentifier
2020-12-11T11:03:11,169  INFO ModeStatsControlerListener:149 -- mode share of mode car = 0.5591926096011107
2020-12-11T11:03:11,169  INFO ModeStatsControlerListener:149 -- mode share of mode car_passenger = 0.13840978266673787
2020-12-11T11:03:11,169  INFO ModeStatsControlerListener:149 -- mode share of mode pt = 0.1644150157526566
2020-12-11T11:03:11,169  INFO ModeStatsControlerListener:149 -- mode share of mode walk = 0.13798259197949483
2020-12-11T11:03:11,200  INFO ControlerListenerManagerImpl:167 calling notifyIterationEnds on org.matsim.analysis.ScoreStatsControlerListener
2020-12-11T11:03:11,201  INFO ScoreStatsControlerListener:181 -- avg. score of the executed plan of each agent: -2.4041968007087107
2020-12-11T11:03:11,201  INFO ScoreStatsControlerListener:182 -- avg. score of the worst plan of each agent: -2.463223035478312
2020-12-11T11:03:11,201  INFO ScoreStatsControlerListener:183 -- avg. of the avg. plan score per agent: -2.432853112882864
2020-12-11T11:03:11,201  INFO ScoreStatsControlerListener:184 -- avg. score of the best plan of each agent: -2.4024831902874144
2020-12-11T11:03:11,227  INFO ControlerListenerManagerImpl:167 calling notifyIterationEnds on org.matsim.analysis.IterationTravelStatsControlerListener
2020-12-11T11:03:11,234  INFO TravelDistanceStats:143 -- average leg distance per plan (executed plans only): 2799.9967604270073 meters
2020-12-11T11:03:11,234  INFO TravelDistanceStats:144 average leg distance per Person (executed plans only): 10203.830829202172 meters (statistic on all 27882 legs which have a finite distance)
2020-12-11T11:03:11,234  INFO TravelDistanceStats:145 -- average trip distance per plan (executed plans only): 4176.17518114497 meters
2020-12-11T11:03:11,234  INFO TravelDistanceStats:146 average trip distance per Person (executed plans only): 10201.089787010631 meters (statistic on all 18689 trips which have a finite distance)
2020-12-11T11:03:11,234  INFO TravelDistanceStats:147 (TravelDistanceStats takes an average over all legs where the simulation reports travelled (network) distances
2020-12-11T11:03:11,234  INFO TravelDistanceStats:148 (and teleported legs whose route contains a distance.)
2020-12-11T11:03:11,623  INFO ControlerListenerManagerImpl:167 calling notifyIterationEnds on org.matsim.analysis.LegHistogramListener
2020-12-11T11:03:11,624  INFO LegHistogramListener:72 number of legs:	27909	100%
2020-12-11T11:03:11,624  INFO LegHistogramListener:79 number of car legs:	10472	37.52194632555806%
2020-12-11T11:03:11,624  INFO LegHistogramListener:79 number of car_passenger legs:	2592	9.28732666881651%
2020-12-11T11:03:11,624  INFO LegHistogramListener:79 number of pt legs:	4827	17.29549607653445%
2020-12-11T11:03:11,624  INFO LegHistogramListener:79 number of walk legs:	10018	35.89523092909097%
2020-12-11T11:03:11,844  INFO ControlerListenerManagerImpl:167 calling notifyIterationEnds on org.matsim.analysis.LinkStatsControlerListener
2020-12-11T11:03:12,305  INFO ControlerListenerManagerImpl:167 calling notifyIterationEnds on org.eqasim.core.simulation.analysis.AnalysisOutputListener
2020-12-11T11:03:12,305  INFO EventsManagerImpl:175 removing Event-Handler: org.eqasim.core.analysis.TripListener
2020-12-11T11:03:12,305  INFO EventsManagerImpl:175 removing Event-Handler: org.eqasim.core.analysis.TripListener
2020-12-11T11:03:12,383  INFO ControlerListenerManagerImpl:171 [it.60] all ControlerIterationEndsListeners called.
2020-12-11T11:03:12,465  INFO AbstractController:168 ### ITERATION 60 ENDS
2020-12-11T11:03:12,465  INFO AbstractController:169 ###################################################
2020-12-11T11:03:12,465  INFO MatsimRuntimeModifications:79 S H U T D O W N   ---   start shutdown.
2020-12-11T11:03:12,466  INFO ControlerListenerManagerImpl:121 calling notifyShutdown on org.matsim.core.controler.corelisteners.EventsHandlingImpl
2020-12-11T11:03:12,466  INFO ControlerListenerManagerImpl:121 calling notifyShutdown on org.matsim.core.controler.corelisteners.DumpDataAtEndImpl
2020-12-11T11:03:12,470  WARN ObjectAttributesConverter:77 No AttributeConverter found for class java.util.Collections$UnmodifiableMap. Not all attribute values can be converted.
2020-12-11T11:03:12,470  INFO Counter:69 [PopulationWriter] dumped person # 1
2020-12-11T11:03:12,470  INFO Counter:69 [PopulationWriter] dumped person # 2
2020-12-11T11:03:12,471  INFO Counter:69 [PopulationWriter] dumped person # 4
2020-12-11T11:03:12,471  INFO Counter:69 [PopulationWriter] dumped person # 8
2020-12-11T11:03:12,471  INFO Counter:69 [PopulationWriter] dumped person # 16
2020-12-11T11:03:12,473  INFO Counter:69 [PopulationWriter] dumped person # 32
2020-12-11T11:03:12,475  INFO Counter:69 [PopulationWriter] dumped person # 64
2020-12-11T11:03:12,479  INFO Counter:69 [PopulationWriter] dumped person # 128
2020-12-11T11:03:12,488  INFO Counter:69 [PopulationWriter] dumped person # 256
2020-12-11T11:03:12,510  INFO Counter:69 [PopulationWriter] dumped person # 512
2020-12-11T11:03:12,549  INFO Counter:69 [PopulationWriter] dumped person # 1024
2020-12-11T11:03:12,627  INFO Counter:69 [PopulationWriter] dumped person # 2048
2020-12-11T11:03:12,754  INFO Counter:69 [PopulationWriter] dumped person # 4096
2020-12-11T11:03:12,946  INFO PopulationWriter:144 Population written to: simulation_output/output_plans.xml.gz
2020-12-11T11:03:12,946  INFO Counter:74 [PopulationWriter] dumped person # 7651
2020-12-11T11:03:12,947  INFO NetworkWriter:69 Writing network to file: simulation_output/output_network.xml.gz...
2020-12-11T11:03:13,123  INFO NetworkWriter:72 done.
2020-12-11T11:03:13,129  INFO Config:587 setting context to [file:/home/sara/eqasim-java/quebec/]
2020-12-11T11:03:13,131  INFO Config:587 setting context to [file:/home/sara/eqasim-java/quebec/]
2020-12-11T11:03:13,132  INFO Config:587 setting context to [file:/home/sara/eqasim-java/quebec/]
2020-12-11T11:03:13,133  INFO Config:587 setting context to [file:/home/sara/eqasim-java/quebec/]
2020-12-11T11:03:13,134  INFO Config:587 setting context to [file:/home/sara/eqasim-java/quebec/]
2020-12-11T11:03:13,138  INFO Config:587 setting context to [file:/home/sara/eqasim-java/quebec/]
2020-12-11T11:03:13,139  INFO Config:587 setting context to [file:/home/sara/eqasim-java/quebec/]
2020-12-11T11:03:13,141  INFO Config:587 setting context to [file:/home/sara/eqasim-java/quebec/]
2020-12-11T11:03:13,142  INFO Config:587 setting context to [file:/home/sara/eqasim-java/quebec/]
2020-12-11T11:03:13,143  INFO Config:587 setting context to [file:/home/sara/eqasim-java/quebec/]
2020-12-11T11:03:13,145  INFO Config:587 setting context to [file:/home/sara/eqasim-java/quebec/]
2020-12-11T11:03:13,146  INFO Config:587 setting context to [file:/home/sara/eqasim-java/quebec/]
2020-12-11T11:03:13,147  INFO Config:587 setting context to [file:/home/sara/eqasim-java/quebec/]
2020-12-11T11:03:13,148  INFO Config:587 setting context to [file:/home/sara/eqasim-java/quebec/]
2020-12-11T11:03:13,149  INFO Config:587 setting context to [file:/home/sara/eqasim-java/quebec/]
2020-12-11T11:03:13,155  INFO Config:587 setting context to [file:/home/sara/eqasim-java/quebec/]
2020-12-11T11:03:13,156  INFO Config:587 setting context to [file:/home/sara/eqasim-java/quebec/]
2020-12-11T11:03:13,157  WARN PlansCalcRouteConfigGroup:338 The first mode routing params that are explicitly defined clear the default mode routing params.  This functionality was removed for 
2020-12-11T11:03:13,158  WARN PlansCalcRouteConfigGroup:339     some weeks in the development head, after release 11.x, and before release 12.x; it is now back.  If you want to avoid this 
2020-12-11T11:03:13,158  WARN PlansCalcRouteConfigGroup:340     warning, use clearModeRoutingParams(true) in code, and "clearDefaultTeleportedModeParams"=true in xml config.
2020-12-11T11:03:13,158  INFO Config:587 setting context to [file:/home/sara/eqasim-java/quebec/]
2020-12-11T11:03:13,159  INFO Config:587 setting context to [file:/home/sara/eqasim-java/quebec/]
2020-12-11T11:03:13,164  INFO Config:587 setting context to [file:/home/sara/eqasim-java/quebec/]
2020-12-11T11:03:13,165  INFO Config:587 setting context to [file:/home/sara/eqasim-java/quebec/]
2020-12-11T11:03:13,166  INFO Config:587 setting context to [file:/home/sara/eqasim-java/quebec/]
2020-12-11T11:03:13,167  INFO Config:587 setting context to [file:/home/sara/eqasim-java/quebec/]
2020-12-11T11:03:13,168  INFO Config:587 setting context to [file:/home/sara/eqasim-java/quebec/]
2020-12-11T11:03:13,169  INFO Config:587 setting context to [file:/home/sara/eqasim-java/quebec/]
2020-12-11T11:03:13,170  INFO Config:587 setting context to [file:/home/sara/eqasim-java/quebec/]
2020-12-11T11:03:13,171  INFO Config:587 setting context to [file:/home/sara/eqasim-java/quebec/]
2020-12-11T11:03:13,172  INFO Config:587 setting context to [file:/home/sara/eqasim-java/quebec/]
2020-12-11T11:03:15,932  INFO TransitScheduleWriter:87 about to write transit schedule to: simulation_output/output_transitSchedule.xml.gz
2020-12-11T11:03:16,385  INFO MatsimVehicleWriter:54 about to write vehicles to: simulation_output/output_transitVehicles.xml.gz
2020-12-11T11:03:16,385  INFO VehicleWriterV2:63 about to write vehicles to: simulation_output/output_transitVehicles.xml.gz
2020-12-11T11:03:16,397  INFO MatsimVehicleWriter:54 about to write vehicles to: simulation_output/output_vehicles.xml.gz
2020-12-11T11:03:16,397  INFO VehicleWriterV2:63 about to write vehicles to: simulation_output/output_vehicles.xml.gz
2020-12-11T11:03:16,417  INFO MatsimVehicleWriter:54 about to write vehicles to: simulation_output/output_allVehicles.xml.gz
2020-12-11T11:03:16,417  INFO VehicleWriterV2:63 about to write vehicles to: simulation_output/output_allVehicles.xml.gz
2020-12-11T11:03:16,424  INFO HouseholdsWriterV10:66 about to write  households to: simulation_output/output_households.xml.gz
2020-12-11T11:03:16,424  INFO Counter:69 [HouseholdsWriter] wrote household # 1
2020-12-11T11:03:16,424  INFO Counter:69 [HouseholdsWriter] wrote household # 2
2020-12-11T11:03:16,424  INFO Counter:69 [HouseholdsWriter] wrote household # 4
2020-12-11T11:03:16,424  INFO Counter:69 [HouseholdsWriter] wrote household # 8
2020-12-11T11:03:16,424  INFO Counter:69 [HouseholdsWriter] wrote household # 16
2020-12-11T11:03:16,424  INFO Counter:69 [HouseholdsWriter] wrote household # 32
2020-12-11T11:03:16,425  INFO Counter:69 [HouseholdsWriter] wrote household # 64
2020-12-11T11:03:16,425  INFO Counter:69 [HouseholdsWriter] wrote household # 128
2020-12-11T11:03:16,426  INFO Counter:69 [HouseholdsWriter] wrote household # 256
2020-12-11T11:03:16,429  INFO Counter:69 [HouseholdsWriter] wrote household # 512
2020-12-11T11:03:16,432  INFO Counter:69 [HouseholdsWriter] wrote household # 1024
2020-12-11T11:03:16,438  INFO Counter:69 [HouseholdsWriter] wrote household # 2048
2020-12-11T11:03:16,447  INFO Counter:74 [HouseholdsWriter] wrote household # 3568
2020-12-11T11:03:16,507  INFO ControlerListenerManagerImpl:126 calling notifyShutdown on org.matsim.analysis.ModeStatsControlerListener
2020-12-11T11:03:16,507  INFO ControlerListenerManagerImpl:126 calling notifyShutdown on org.matsim.analysis.ScoreStatsControlerListener
2020-12-11T11:03:16,507  INFO ControlerListenerManagerImpl:126 calling notifyShutdown on org.matsim.analysis.IterationTravelStatsControlerListener
2020-12-11T11:03:16,771  INFO IterationTravelStatsControlerListener:100 Writing all Person and Attributes to personscsv
2020-12-11T11:03:16,867  INFO IterationTravelStatsControlerListener:134 ...done
2020-12-11T11:03:16,867  INFO ControlerListenerManagerImpl:126 calling notifyShutdown on org.eqasim.core.simulation.analysis.AnalysisOutputListener
2020-12-11T11:03:16,869  INFO ControlerListenerManagerImpl:129 all ControlerShutdownListeners called.
2020-12-11T11:03:16,869  INFO MatsimRuntimeModifications:102 S H U T D O W N   ---   shutdown completed.
2020-12-11T11:03:16,869  INFO OutputDirectoryLogging:170 closing the logfile, i.e. messages sent to the logger after this message are not written to the logfile.
