2020-12-10T14:50:18,538  INFO Gbl:63 JVM: 11.0.9.1; Ubuntu; mixed mode, sharing; 64-bit
2020-12-10T14:50:18,539  INFO Gbl:67 OS: Linux; 5.4.0-56-generic; amd64
2020-12-10T14:50:18,539  INFO Gbl:70 CPU cores: 8
2020-12-10T14:50:18,547  INFO Gbl:71 max. Memory: 3934.0MB (4125097984B)
2020-12-10T14:50:18,552  INFO Gbl:109 MATSim-Build: r3047d3a9d4b11b836b6f2a61b9605de74420d5a2 (2020-06-04 11:51:49)
2020-12-10T14:50:18,555  INFO ControlerListenerManagerImpl:107 calling notifyStartup on org.matsim.guice.DependencyGraphControlerListener
2020-12-10T14:50:18,566  INFO MemoryObserver:41 used RAM: 146 MB  free: 167 MB  total: 314 MB
2020-12-10T14:50:18,807  INFO ControlerListenerManagerImpl:107 calling notifyStartup on org.matsim.counts.CountsControlerListener
2020-12-10T14:50:18,807  INFO ControlerListenerManagerImpl:107 calling notifyStartup on org.matsim.analysis.ModeStatsControlerListener
2020-12-10T14:50:18,807  INFO ControlerListenerManagerImpl:107 calling notifyStartup on org.matsim.analysis.ScoreStatsControlerListener
2020-12-10T14:50:18,807  INFO ControlerListenerManagerImpl:107 calling notifyStartup on org.matsim.contribs.discrete_mode_choice.modules.utils.ModeChoiceInTheLoopChecker
2020-12-10T14:50:18,808  INFO ControlerListenerManagerImpl:110 all ControlerStartupListeners called.
2020-12-10T14:50:18,809  INFO ControlerUtils:79 config dump before iterations start
2020-12-10T14:50:18,866  INFO ControlerUtils:83 

<?xml version="1.0" encoding="UTF-8"?>
<!DOCTYPE config SYSTEM "http://www.matsim.org/files/dtd/config_v2.dtd">
<config>
	<module name="DiscreteModeChoice" >
		<param name="accumulateEstimationDelays" value="true" />
		<!-- Trips tested with the modes listed here will be cached for each combination of trip and agent during one replanning pass. -->
		<param name="cachedModes" value="pt, car, car_passenger, walk" />
		<!-- Defines whether to run a runtime check that verifies that everything is set up correctl for a 'mode-choice-in-the-loop' setup. -->
		<param name="enforceSinglePlan" value="true" />
		<!-- Defines what happens if there is no feasible choice alternative for an agent: IGNORE_AGENT, INITIAL_CHOICE, EXCEPTION -->
		<param name="fallbackBehaviour" value="EXCEPTION" />
		<!-- Defines how home activities are identified. Built-in choices: FirstActivity, ActivityBased -->
		<param name="homeFinder" value="ActivityBased" />
		<!-- Defines which ModeAvailability component to use. Built-in choices: Default, Car -->
		<param name="modeAvailability" value="WayneCountyModeAvailability" />
		<!-- Main model type: Trip, Tour -->
		<param name="modelType" value="Tour" />
		<!-- Defines whether the DiscreteModeChoice strategy should be followed by a rerouting of all trips. If the estimator returns alternatives with routes attached this is not necessary. -->
		<param name="performReroute" value="false" />
		<!-- Defines which Selector component to use. Built-in choices: Maximum, MultinomialLogit, Random -->
		<param name="selector" value="MultinomialLogit" />
		<!-- Defines a number of TourConstraint components that should be activated. Built-in choices: FromTripBased, VehicleContinuity, SubtourMode -->
		<param name="tourConstraints" value="FromTripBased, VehicleTourConstraintWithCarPassenger" />
		<!-- Defines which TourEstimator component to use. Built-in choices: MATSimDayScoring, Cumulative, Uniform -->
		<param name="tourEstimator" value="Cumulative" />
		<!-- Defines a number of TourFilter components that should be activated. Built-in choices: TourLength -->
		<param name="tourFilters" value="TourLengthFilter, OutsideFilter" />
		<!-- Defines which TourFinder component to use. Built-in choices: PlanBased, ActivityBased, HomeBased -->
		<param name="tourFinder" value="EqasimTourFinder" />
		<!-- Defines a number of TripConstraint components that should be activated. Built-in choices: VehicleContinuity, ShapeFile, LinkAttribute, TransitWalk -->
		<param name="tripConstraints" value="PassengerConstraint, OutsideConstraint, TransitWalk" />
		<!-- Defines which TripEstimator component to use. Built-in choices: MATSimTripScoring, Uniform -->
		<param name="tripEstimator" value="EqasimUtilityEstimator" />
		<!-- Defines a number of TripFilter components that should be activated. Built-in choices:  -->
		<param name="tripFilters" value="" />
		<parameterset type="homeFinder:ActivityBased" >
			<!-- Comma-separated activity types which should be considered as home. -->
			<param name="activityTypes" value="home" />
		</parameterset>
		<parameterset type="modeAvailability:Car" >
			<!-- Defines which modes are avialable to the agents. -->
			<param name="availableModes" value="pt, car, walk" />
		</parameterset>
		<parameterset type="modeAvailability:Default" >
			<!-- Defines which modes are avialable to the agents. -->
			<param name="availableModes" value="pt, car, walk" />
		</parameterset>
		<parameterset type="selector:MultinomialLogit" >
			<!-- Defines whether candidates with a utility lower than the minimum utility should be filtered out. -->
			<param name="considerMinimumUtility" value="false" />
			<!-- Candidates with a utility above that threshold will be cut off to this value. -->
			<param name="maximumUtility" value="700.0" />
			<!-- Candidates with a utility lower than that threshold will not be considered by default. -->
			<param name="minimumUtility" value="-700.0" />
		</parameterset>
		<parameterset type="tourConstraint:SubtourMode" >
			<!-- Modes for which the sub-tour behaviour should be replicated. If all available modes are put here, this equals to SubTourModeChoice with singleLegProbability == 0.0; if only the constrained modes are put here, it equals singleLegProbability > 0.0 -->
			<param name="constrainedModes" value="" />
		</parameterset>
		<parameterset type="tourConstraint:VehicleContinuity" >
			<!-- Defines which modes must fulfill continuity constraints (can only be used where they have been brough to before) -->
			<param name="restrictedModes" value="car" />
		</parameterset>
		<parameterset type="tourFilter:TourLength" >
			<!-- Defines the maximum allowed length of a tour. -->
			<param name="maximumLength" value="10" />
		</parameterset>
		<parameterset type="tourFinder:ActivityBased" >
			<!-- Comma-separated activity types which should be considered as start and end of a tour. If a plan does not start or end with such an activity additional tours are added. -->
			<param name="activityTypes" value="home" />
		</parameterset>
		<parameterset type="tripConstraint:LinkAttribute" >
			<!-- Link attribute that will be considered for feasibility of the trip. -->
			<param name="attributeName" value="null" />
			<!-- Value that the link attributes should equal. -->
			<param name="attributeValue" value="null" />
			<!-- Modes for which the constraint will be considered. -->
			<param name="constrainedModes" value="" />
			<!-- Defines the criterion on when a trip with the constrained mode will be allowed: ORIGIN, DESTINATION, BOTH, ANY, NONE -->
			<param name="requirement" value="BOTH" />
		</parameterset>
		<parameterset type="tripConstraint:ShapeFile" >
			<!-- Modes for which the shapes will be considered. -->
			<param name="constrainedModes" value="" />
			<!-- Path to a shape file, which should have the same projection as the network. -->
			<param name="path" value="null" />
			<!-- Defines the criterion on when a trip with the constrained mode will be allowed: ORIGIN, DESTINATION, BOTH, ANY, NONE -->
			<param name="requirement" value="BOTH" />
		</parameterset>
		<parameterset type="tripConstraint:VehicleContinuity" >
			<!-- Defines if the advanced constriant is used (vehicles must be brought back home). -->
			<param name="isAdvanced" value="true" />
			<!-- Defines which modes must fulfill continuity constraints (can only be used where they have been brough to before) -->
			<param name="restrictedModes" value="car" />
		</parameterset>
		<parameterset type="tripEstimator:MATSimTripScoring" >
			<!-- Modes which are considered as public transit, i.e. they involve waiting for a vehicle. -->
			<param name="ptLegModes" value="pt" />
		</parameterset>
	</module>
	<module name="JDEQSim" >
		<param name="carSize" value="7.5" />
		<param name="endTime" value="undefined" />
		<param name="flowCapacityFactor" value="1.0" />
		<param name="gapTravelSpeed" value="15.0" />
		<param name="minimumInFlowCapacity" value="1800.0" />
		<param name="squeezeTime" value="1800.0" />
		<param name="storageCapacityFactor" value="1.0" />
	</module>
	<module name="TimeAllocationMutator" >
		<!-- Default:true; Defines whether time mutation changes an activity's duration. -->
		<param name="mutationAffectsDuration" value="true" />
		<!-- Default:1800.0; Defines how many seconds a time mutation can maximally shift a time. -->
		<param name="mutationRange" value="1800.0" />
	</module>
	<module name="changeMode" >
		<!-- Defines whether car availability is considered be considered or not. An agent has no car only if it has no license, or never access to a car. Default: true -->
		<param name="ignoreCarAvailability" value="true" />
		<!-- Defines the mode switch behavior. Possible values [fromAllModesToSpecifiedModes, fromSpecifiedModesToSpecifiedModes] Default: fromSpecifiedModesToSpecifiedModes. -->
		<param name="modeSwitchBehavior" value="fromSpecifiedModesToSpecifiedModes" />
		<!-- Defines all the modes available, including chain-based modes, seperated by commas -->
		<param name="modes" value="car,pt" />
	</module>
	<module name="controler" >
		<!-- Compression algorithm to use when writing out data to files. Possible values: [none, gzip, lz4, zst] -->
		<param name="compressionType" value="gzip" />
		<!-- Sets whether graphs showing some analyses should automatically be generated during the simulation. The generation of graphs usually takes a small amount of time that does not have any weight in big simulations, but add a significant overhead in smaller runs or in test cases where the graphical output is not even requested. -->
		<param name="createGraphs" value="true" />
		<!-- true if at the end of a run, plans, network, config etc should be dumped to a file -->
		<param name="dumpDataAtEnd" value="true" />
		<!-- Default=false. If enabled, the router takes travel times needed for turning moves into account. Cannot be used if the (Fast)AStarLandmarks routing or TravelTimeCalculator.separateModes is enabled. -->
		<param name="enableLinkToLinkRouting" value="false" />
		<!-- Default=xml; Specifies the file format for writing events. Currently supported: [xml, pb, json]
		Multiple values can be specified separated by commas (','). -->
		<param name="eventsFileFormat" value="xml" />
		<!-- Default=0. First Iteration of a simulation. -->
		<param name="firstIteration" value="0" />
		<!-- Default=1000. Last Iteration of a simulation. -->
		<param name="lastIteration" value="10" />
		<!-- Defines which mobility simulation will be used. Currently supported: qsim JDEQSim 
		Depending on the chosen mobsim, you'll have to add additional config modules to configure the corresponding mobsim.
		For 'qsim', add a module 'qsim' to the config. -->
		<param name="mobsim" value="qsim" />
		<param name="outputDirectory" value="./output/quebec_eqasim" />
		<!-- Possible values: failIfDirectoryExists, overwriteExistingFiles, deleteDirectoryIfExists -->
		<param name="overwriteFiles" value="failIfDirectoryExists" />
		<!-- The type of routing (least cost path) algorithm used, may have the values: Dijkstra, FastDijkstra, AStarLandmarks or FastAStarLandmarks -->
		<param name="routingAlgorithmType" value="AStarLandmarks" />
		<!-- An identifier for the current run which is used as prefix for output files and mentioned in output xml files etc. -->
		<param name="runId" value="null" />
		<!-- Comma-separated list of visualizer output file formats. `transims', `googleearth', and `otfvis'. -->
		<param name="snapshotFormat" value="" />
		<!-- iterationNumber % writeEventsInterval == 0 defines in which iterations events are written to a file. `0' disables events writing completely. -->
		<param name="writeEventsInterval" value="10" />
		<!-- iterationNumber % writePlansInterval == 0 defines (hopefully) in which iterations plans are written to a file. `0' disables plans writing completely.  Some plans in early iterations are always written -->
		<param name="writePlansInterval" value="10" />
		<!-- iterationNumber % writeSnapshotsInterval == 0 defines in which iterations snapshots are written to a file. `0' disables snapshots writing completely -->
		<param name="writeSnapshotsInterval" value="1" />
		<!-- iterationNumber % writeEventsInterval == 0 defines in which iterations trips CSV are written to a file. `0' disables trips writing completely. -->
		<param name="writeTripsInterval" value="10" />
	</module>
	<module name="counts" >
		<!-- Transport modes that will be respected for the counts comparison. 'car' is default, which includes also bussed from the pt simulation module. Use this parameter in combination with 'filterModes' = true! -->
		<param name="analyzedModes" value="car" />
		<!-- Specifies over how many iterations the link volumes should be averaged that are used for the counts comparison. Use 1 or 0 to only use the link volumes of a single iteration. This values cannot be larger than the value specified for writeCountsInterval -->
		<param name="averageCountsOverIterations" value="5" />
		<!-- factor by which to re-scale the simulated values.  necessary when simulation runs with something different from 100%.  needs to be adapted manually -->
		<param name="countsScaleFactor" value="1.0" />
		<!-- distance to distanceFilterCenterNode to include counting stations. The unit of distance is the Euclidean distance implied by the coordinate system -->
		<param name="distanceFilter" value="null" />
		<!-- node id for center node of distance filter -->
		<param name="distanceFilterCenterNode" value="null" />
		<!-- If true, link counts from legs performed on modes not included in the 'analyzedModes' parameter are ignored. -->
		<param name="filterModes" value="false" />
		<!-- The Coordinates Reference System in which the coordinates are expressed in the input file. At import, the coordinates will be converted to the coordinate system defined in "global", and willbe converted back at export. If not specified, no conversion happens. -->
		<param name="inputCRS" value="null" />
		<!-- input file name to counts package -->
		<param name="inputCountsFile" value="null" />
		<!-- possible values: `html', `kml', `txt', `all' -->
		<param name="outputformat" value="txt" />
		<!-- Specifies how often the counts comparison should be calculated and written. -->
		<param name="writeCountsInterval" value="10" />
	</module>
	<module name="eqasim" >
		<param name="costParametersPath" value="" />
		<param name="crossingPenalty" value="0.0" />
		<!-- Possible values: kilometer, meter, mile, foot -->
		<param name="distanceUnit" value="foot" />
		<param name="modeParametersPath" value="" />
		<param name="sampleSize" value="0.01" />
		<!-- Possible values: kilometer, meter, mile, foot -->
		<param name="tripAnalysisDistanceUnit" value="meter" />
		<param name="tripAnalysisInterval" value="5" />
		<param name="useScheduleBasedTransport" value="true" />
		<parameterset type="cost_model" >
			<param name="mode" value="pt" />
			<param name="model" value="WayneCountyPtCostModel" />
		</parameterset>
		<parameterset type="estimator" >
			<param name="estimator" value="qcCarEstimator" />
			<param name="mode" value="car" />
		</parameterset>
		<parameterset type="estimator" >
			<param name="estimator" value="qcPTEstimator" />
			<param name="mode" value="pt" />
		</parameterset>
		<parameterset type="estimator" >
			<param name="estimator" value="qcWalkEstimator" />
			<param name="mode" value="walk" />
		</parameterset>
		<parameterset type="estimator" >
			<param name="estimator" value="qcCarPassengerEstimator" />
			<param name="mode" value="car_passenger" />
		</parameterset>
	</module>
	<module name="eqasim:calibration" >
		<param name="enableOutput" value="false" />
		<param name="hint" value="No hint given." />
		<param name="referencePath" value="null" />
	</module>
	<module name="facilities" >
		<!-- This defines how facilities should be created. Possible values: none fromFile setInScenario onePerActivityLinkInPlansFile onePerActivityLinkInPlansFileExceptWhenCoordinatesAreGiven onePerActivityLocationInPlansFile  -->
		<param name="facilitiesSource" value="none" />
		<!-- A prefix to be used for auto-generated IDs. -->
		<param name="idPrefix" value="f_auto_" />
		<!-- The Coordinates Reference System in which the coordinates are expressed in the input file. At import, the coordinates will be converted to the coordinate system defined in "global", and willbe converted back at export. If not specified, no conversion happens. -->
		<param name="inputCRS" value="null" />
		<param name="inputFacilitiesFile" value="null" />
		<param name="inputFacilityAttributesFile" value="null" />
		<param name="insistingOnUsingDeprecatedFacilitiesAttributeFile" value="false" />
	</module>
	<module name="global" >
		<param name="coordinateSystem" value="EPSG:32187" />
		<param name="defaultDelimiter" value=";" />
		<param name="insistingOnDeprecatedConfigVersion" value="true" />
		<!-- "global" number of threads.  This number is used, e.g., for replanning, but NOT in the mobsim.  This can typically be set to as many cores as you have available, or possibly even slightly more. -->
		<param name="numberOfThreads" value="2" />
		<param name="randomSeed" value="4711" />
	</module>
	<module name="households" >
		<param name="inputFile" value="null" />
		<param name="inputHouseholdAttributesFile" value="null" />
		<param name="insistingOnUsingDeprecatedHouseholdsAttributeFile" value="false" />
	</module>
	<module name="linkStats" >
		<!-- Specifies over how many iterations the link volumes should be averaged that are used for the link statistics. Use 1 or 0 to only use the link volumes of a single iteration. This values cannot be larger than the value specified for writeLinkStatsInterval -->
		<param name="averageLinkStatsOverIterations" value="5" />
		<!-- Specifies how often the link stats should be calculated and written. Use 0 to disable the generation of link stats. -->
		<param name="writeLinkStatsInterval" value="10" />
	</module>
	<module name="network" >
		<!-- The Coordinates Reference System in which the coordinates are expressed in the input file. At import, the coordinates will be converted to the coordinate system defined in "global", and willbe converted back at export. If not specified, no conversion happens. -->
		<param name="inputCRS" value="null" />
		<param name="inputChangeEventsFile" value="null" />
		<param name="inputNetworkFile" value="/home/sara/matsim-12.0/input/mapped_network.xml" />
		<param name="laneDefinitionsFile" value="null" />
		<param name="timeVariantNetwork" value="false" />
	</module>
	<module name="parallelEventHandling" >
		<!-- Estimated number of events during mobsim run. An optional optimization hint for the framework. -->
		<param name="estimatedNumberOfEvents" value="null" />
		<!-- Number of threads for parallel events handler. _null_ means the framework decides by itself. 0 is currently not possible. -->
		<param name="numberOfThreads" value="null" />
		<!-- If enabled, each event handler is assigned to its own thread. Note that enabling this feature disabled the numberOfThreads option! This feature is still experimental! -->
		<param name="oneThreadPerHandler" value="false" />
		<!-- If enabled, it is ensured that all events that are created during a time step of the mobility simulation are processed before the next time step is simulated. E.g. neccessary when within-day replanning is used. -->
		<param name="synchronizeOnSimSteps" value="true" />
	</module>
	<module name="planCalcScore" >
		<!-- logit model scale parameter. default: 1.  Has name and default value for historical reasons (see Bryan Raney's phd thesis). -->
		<param name="BrainExpBeta" value="2.0" />
		<param name="PathSizeLogitBeta" value="1.0" />
		<!-- fraction of iterations at which MSA score averaging is started. The matsim theory department suggests to use this together with switching off choice set innovation (where a similar switch exists), but it has not been tested yet. -->
		<param name="fractionOfIterationsToStartScoreMSA" value="null" />
		<!-- new_score = (1-learningRate)*old_score + learningRate * score_from_mobsim.  learning rates close to zero emulate score averaging, but slow down initial convergence -->
		<param name="learningRate" value="1.0" />
		<!-- There used to be a plateau between duration=0 and duration=zeroUtilityDuration. This caused durations to evolve to zero once they were below zeroUtilityDuration, causing problems.  Only use this switch if you need to be backwards compatible with some old results.  (changed nov'13) -->
		<param name="usingOldScoringBelowZeroUtilityDuration" value="false" />
		<!-- write a plans file in each iteration directory which contains what each agent actually did, and the score it received. -->
		<param name="writeExperiencedPlans" value="false" />
		<parameterset type="scoringParameters" >
			<param name="earlyDeparture" value="-0.0" />
			<param name="lateArrival" value="-18.0" />
			<param name="marginalUtilityOfMoney" value="1.0" />
			<param name="performing" value="6.0" />
			<param name="subpopulation" value="null" />
			<param name="utilityOfLineSwitch" value="-1.0" />
			<param name="waiting" value="-0.0" />
			<param name="waitingPt" value="-6.0" />
			<parameterset type="activityParams" >
				<param name="activityType" value="dummy" />
				<param name="closingTime" value="undefined" />
				<param name="earliestEndTime" value="undefined" />
				<param name="latestStartTime" value="undefined" />
				<param name="minimalDuration" value="undefined" />
				<param name="openingTime" value="undefined" />
				<param name="priority" value="1.0" />
				<param name="scoringThisActivityAtAll" value="true" />
				<!-- typical duration of activity.  needs to be defined and non-zero.  in sec. -->
				<param name="typicalDuration" value="02:00:00" />
				<!-- method to compute score at typical duration.  Options: | uniform | relative | Use uniform for backwards compatibility (all activities same score; higher proba to drop long acts). -->
				<param name="typicalDurationScoreComputation" value="relative" />
			</parameterset>
			<parameterset type="activityParams" >
				<param name="activityType" value="car interaction" />
				<param name="closingTime" value="undefined" />
				<param name="earliestEndTime" value="undefined" />
				<param name="latestStartTime" value="undefined" />
				<param name="minimalDuration" value="undefined" />
				<param name="openingTime" value="undefined" />
				<param name="priority" value="1.0" />
				<param name="scoringThisActivityAtAll" value="false" />
				<param name="typicalDuration" value="undefined" />
				<param name="typicalDurationScoreComputation" value="relative" />
			</parameterset>
			<parameterset type="activityParams" >
				<param name="activityType" value="pt interaction" />
				<param name="closingTime" value="undefined" />
				<param name="earliestEndTime" value="undefined" />
				<param name="latestStartTime" value="undefined" />
				<param name="minimalDuration" value="undefined" />
				<param name="openingTime" value="undefined" />
				<param name="priority" value="1.0" />
				<param name="scoringThisActivityAtAll" value="false" />
				<param name="typicalDuration" value="undefined" />
				<param name="typicalDurationScoreComputation" value="relative" />
			</parameterset>
			<parameterset type="activityParams" >
				<param name="activityType" value="bike interaction" />
				<param name="closingTime" value="undefined" />
				<param name="earliestEndTime" value="undefined" />
				<param name="latestStartTime" value="undefined" />
				<param name="minimalDuration" value="undefined" />
				<param name="openingTime" value="undefined" />
				<param name="priority" value="1.0" />
				<param name="scoringThisActivityAtAll" value="false" />
				<param name="typicalDuration" value="undefined" />
				<param name="typicalDurationScoreComputation" value="relative" />
			</parameterset>
			<parameterset type="activityParams" >
				<param name="activityType" value="drt interaction" />
				<param name="closingTime" value="undefined" />
				<param name="earliestEndTime" value="undefined" />
				<param name="latestStartTime" value="undefined" />
				<param name="minimalDuration" value="undefined" />
				<param name="openingTime" value="undefined" />
				<param name="priority" value="1.0" />
				<param name="scoringThisActivityAtAll" value="false" />
				<param name="typicalDuration" value="undefined" />
				<param name="typicalDurationScoreComputation" value="relative" />
			</parameterset>
			<parameterset type="activityParams" >
				<param name="activityType" value="taxi interaction" />
				<param name="closingTime" value="undefined" />
				<param name="earliestEndTime" value="undefined" />
				<param name="latestStartTime" value="undefined" />
				<param name="minimalDuration" value="undefined" />
				<param name="openingTime" value="undefined" />
				<param name="priority" value="1.0" />
				<param name="scoringThisActivityAtAll" value="false" />
				<param name="typicalDuration" value="undefined" />
				<param name="typicalDurationScoreComputation" value="relative" />
			</parameterset>
			<parameterset type="activityParams" >
				<param name="activityType" value="other interaction" />
				<param name="closingTime" value="undefined" />
				<param name="earliestEndTime" value="undefined" />
				<param name="latestStartTime" value="undefined" />
				<param name="minimalDuration" value="undefined" />
				<param name="openingTime" value="undefined" />
				<param name="priority" value="1.0" />
				<param name="scoringThisActivityAtAll" value="false" />
				<param name="typicalDuration" value="undefined" />
				<param name="typicalDurationScoreComputation" value="relative" />
			</parameterset>
			<parameterset type="activityParams" >
				<param name="activityType" value="walk interaction" />
				<param name="closingTime" value="undefined" />
				<param name="earliestEndTime" value="undefined" />
				<param name="latestStartTime" value="undefined" />
				<param name="minimalDuration" value="undefined" />
				<param name="openingTime" value="undefined" />
				<param name="priority" value="1.0" />
				<param name="scoringThisActivityAtAll" value="false" />
				<param name="typicalDuration" value="undefined" />
				<param name="typicalDurationScoreComputation" value="relative" />
			</parameterset>
			<parameterset type="activityParams" >
				<param name="activityType" value="home" />
				<param name="closingTime" value="undefined" />
				<param name="earliestEndTime" value="undefined" />
				<param name="latestStartTime" value="undefined" />
				<param name="minimalDuration" value="undefined" />
				<param name="openingTime" value="undefined" />
				<param name="priority" value="1.0" />
				<param name="scoringThisActivityAtAll" value="true" />
				<param name="typicalDuration" value="12:00:00" />
				<param name="typicalDurationScoreComputation" value="relative" />
			</parameterset>
			<parameterset type="activityParams" >
				<param name="activityType" value="work" />
				<param name="closingTime" value="undefined" />
				<param name="earliestEndTime" value="undefined" />
				<param name="latestStartTime" value="undefined" />
				<param name="minimalDuration" value="undefined" />
				<param name="openingTime" value="undefined" />
				<param name="priority" value="1.0" />
				<param name="scoringThisActivityAtAll" value="true" />
				<param name="typicalDuration" value="12:00:00" />
				<param name="typicalDurationScoreComputation" value="relative" />
			</parameterset>
			<parameterset type="activityParams" >
				<param name="activityType" value="other" />
				<param name="closingTime" value="undefined" />
				<param name="earliestEndTime" value="undefined" />
				<param name="latestStartTime" value="undefined" />
				<param name="minimalDuration" value="undefined" />
				<param name="openingTime" value="undefined" />
				<param name="priority" value="1.0" />
				<param name="scoringThisActivityAtAll" value="true" />
				<param name="typicalDuration" value="12:00:00" />
				<param name="typicalDurationScoreComputation" value="relative" />
			</parameterset>
			<parameterset type="activityParams" >
				<param name="activityType" value="shop" />
				<param name="closingTime" value="undefined" />
				<param name="earliestEndTime" value="undefined" />
				<param name="latestStartTime" value="undefined" />
				<param name="minimalDuration" value="undefined" />
				<param name="openingTime" value="undefined" />
				<param name="priority" value="1.0" />
				<param name="scoringThisActivityAtAll" value="true" />
				<param name="typicalDuration" value="12:00:00" />
				<param name="typicalDurationScoreComputation" value="relative" />
			</parameterset>
			<parameterset type="activityParams" >
				<param name="activityType" value="education" />
				<param name="closingTime" value="undefined" />
				<param name="earliestEndTime" value="undefined" />
				<param name="latestStartTime" value="undefined" />
				<param name="minimalDuration" value="undefined" />
				<param name="openingTime" value="undefined" />
				<param name="priority" value="1.0" />
				<param name="scoringThisActivityAtAll" value="true" />
				<param name="typicalDuration" value="12:00:00" />
				<param name="typicalDurationScoreComputation" value="relative" />
			</parameterset>
			<parameterset type="activityParams" >
				<param name="activityType" value="leisure" />
				<param name="closingTime" value="undefined" />
				<param name="earliestEndTime" value="undefined" />
				<param name="latestStartTime" value="undefined" />
				<param name="minimalDuration" value="undefined" />
				<param name="openingTime" value="undefined" />
				<param name="priority" value="1.0" />
				<param name="scoringThisActivityAtAll" value="true" />
				<param name="typicalDuration" value="12:00:00" />
				<param name="typicalDurationScoreComputation" value="relative" />
			</parameterset>
			<parameterset type="modeParams" >
				<!-- [utils] alternative-specific constant.  Normally per trip, but that is probably buggy for multi-leg trips. -->
				<param name="constant" value="0.0" />
				<!-- [money] daily monetary constant. default=0 to be backwards compatible -->
				<param name="dailyMonetaryConstant" value="0.0" />
				<!-- [utils] daily utility constant. default=0 to be backwards compatible -->
				<param name="dailyUtilityConstant" value="0.0" />
				<!-- [utils/m] utility of traveling (e.g. walking or driving) per m, normally negative.  this is on top of the time (dis)utility. -->
				<param name="marginalUtilityOfDistance_util_m" value="0.0" />
				<!-- [utils/hr] additional marginal utility of traveling.  normally negative.  this comes on top of the opportunity cost of time -->
				<param name="marginalUtilityOfTraveling_util_hr" value="-6.0" />
				<param name="mode" value="car" />
				<!-- [unit_of_money/m] conversion of distance into money. Normally negative. -->
				<param name="monetaryDistanceRate" value="0.0" />
			</parameterset>
			<parameterset type="modeParams" >
				<param name="constant" value="0.0" />
				<param name="dailyMonetaryConstant" value="0.0" />
				<param name="dailyUtilityConstant" value="0.0" />
				<param name="marginalUtilityOfDistance_util_m" value="0.0" />
				<param name="marginalUtilityOfTraveling_util_hr" value="-6.0" />
				<param name="mode" value="pt" />
				<param name="monetaryDistanceRate" value="0.0" />
			</parameterset>
			<parameterset type="modeParams" >
				<param name="constant" value="0.0" />
				<param name="dailyMonetaryConstant" value="0.0" />
				<param name="dailyUtilityConstant" value="0.0" />
				<param name="marginalUtilityOfDistance_util_m" value="0.0" />
				<param name="marginalUtilityOfTraveling_util_hr" value="-6.0" />
				<param name="mode" value="walk" />
				<param name="monetaryDistanceRate" value="0.0" />
			</parameterset>
			<parameterset type="modeParams" >
				<param name="constant" value="0.0" />
				<param name="dailyMonetaryConstant" value="0.0" />
				<param name="dailyUtilityConstant" value="0.0" />
				<param name="marginalUtilityOfDistance_util_m" value="0.0" />
				<param name="marginalUtilityOfTraveling_util_hr" value="-6.0" />
				<param name="mode" value="bike" />
				<param name="monetaryDistanceRate" value="0.0" />
			</parameterset>
			<parameterset type="modeParams" >
				<param name="constant" value="0.0" />
				<param name="dailyMonetaryConstant" value="0.0" />
				<param name="dailyUtilityConstant" value="0.0" />
				<param name="marginalUtilityOfDistance_util_m" value="0.0" />
				<param name="marginalUtilityOfTraveling_util_hr" value="-6.0" />
				<param name="mode" value="ride" />
				<param name="monetaryDistanceRate" value="0.0" />
			</parameterset>
			<parameterset type="modeParams" >
				<param name="constant" value="0.0" />
				<param name="dailyMonetaryConstant" value="0.0" />
				<param name="dailyUtilityConstant" value="0.0" />
				<param name="marginalUtilityOfDistance_util_m" value="0.0" />
				<param name="marginalUtilityOfTraveling_util_hr" value="-6.0" />
				<param name="mode" value="other" />
				<param name="monetaryDistanceRate" value="0.0" />
			</parameterset>
			<parameterset type="modeParams" >
				<param name="constant" value="0.0" />
				<param name="dailyMonetaryConstant" value="0.0" />
				<param name="dailyUtilityConstant" value="0.0" />
				<param name="marginalUtilityOfDistance_util_m" value="0.0" />
				<param name="marginalUtilityOfTraveling_util_hr" value="-1.0" />
				<param name="mode" value="car_passenger" />
				<param name="monetaryDistanceRate" value="0.0" />
			</parameterset>
		</parameterset>
	</module>
	<module name="plans" >
		<!-- String: minOfDurationAndEndTime tryEndTimeThenDuration endTimeOnly. Anything besides minOfDurationAndEndTime will internally use a different (simpler) version of the TimeAllocationMutator. -->
		<param name="activityDurationInterpretation" value="tryEndTimeThenDuration" />
		<!-- Possible values: reject, useMainModeIdentifier -->
		<param name="handlingOfPlansWithoutRoutingMode" value="reject" />
		<!-- The Coordinates Reference System in which the coordinates are expressed in the input file. At import, the coordinates will be converted to the coordinate system defined in "global", and willbe converted back at export. If not specified, no conversion happens. -->
		<param name="inputCRS" value="null" />
		<param name="inputPersonAttributesFile" value="null" />
		<param name="inputPlansFile" value="/home/sara/matsim-12.0/input/population_with_locations.xml" />
		<param name="insistingOnUsingDeprecatedPersonAttributeFile" value="false" />
		<!-- Defines how routes are stored in memory. Currently supported: LinkNetworkRoute, CompressedNetworkRoute. -->
		<param name="networkRouteType" value="LinkNetworkRoute" />
		<!-- (not tested) will remove plan attributes that are presumably not used, such as activityStartTime. default=false. Use with Caution! -->
		<param name="removingUnnecessaryPlanAttributes" value="false" />
	</module>
	<module name="planscalcroute" >
		<!-- Some typical teleportation routing params are set by default, such as for walk and bike.  Setting this switch to "true" will clear them.  Note that this will also clear settings for helper modes such as for non_network_walk -->
		<param name="clearDefaultTeleportedModeParams" value="false" />
		<!-- All the modes for which the router is supposed to generate network routes (like car) -->
		<param name="networkModes" value="car,car_passenger" />
		<!-- strength of the randomness for the utility of money in routing under toll.  Leads to Pareto-optimal route with randomly drawn money-vs-other-attributes tradeoff. Technically the width parameter of a log-normal distribution. 3.0 seems to be a good value.  -->
		<param name="routingRandomness" value="3.0" />
		<parameterset type="teleportedModeParameters" >
			<param name="beelineDistanceFactor" value="1.3" />
			<param name="mode" value="bike" />
			<!-- Free-speed factor for a teleported mode. Travel time = teleportedModeFreespeedFactor * <freespeed car travel time>. Insert a line like this for every such mode. Please do not set teleportedModeFreespeedFactor as well as teleportedModeSpeed for the same mode, but if you do, +teleportedModeFreespeedFactor wins over teleportedModeSpeed. -->
			<param name="teleportedModeFreespeedFactor" value="null" />
			<!-- Speed for a teleported mode. Travel time = (<beeline distance> * beelineDistanceFactor) / teleportedModeSpeed. Insert a line like this for every such mode. -->
			<param name="teleportedModeSpeed" value="4.166666666666667" />
		</parameterset>
		<parameterset type="teleportedModeParameters" >
			<param name="beelineDistanceFactor" value="1.3" />
			<param name="mode" value="walk" />
			<param name="teleportedModeFreespeedFactor" value="null" />
			<param name="teleportedModeSpeed" value="0.8333333333333333" />
		</parameterset>
		<parameterset type="teleportedModeParameters" >
			<param name="beelineDistanceFactor" value="1.3" />
			<param name="mode" value="non_network_walk" />
			<param name="teleportedModeFreespeedFactor" value="null" />
			<param name="teleportedModeSpeed" value="0.8333333333333333" />
		</parameterset>
		<parameterset type="teleportedModeParameters" >
			<param name="beelineDistanceFactor" value="1.3" />
			<param name="mode" value="ride" />
			<param name="teleportedModeFreespeedFactor" value="1.0" />
			<param name="teleportedModeSpeed" value="null" />
		</parameterset>
		<parameterset type="teleportedModeParameters" >
			<param name="beelineDistanceFactor" value="1.3" />
			<param name="mode" value="pt" />
			<param name="teleportedModeFreespeedFactor" value="2.0" />
			<param name="teleportedModeSpeed" value="null" />
		</parameterset>
	</module>
	<module name="ptCounts" >
		<!-- factor by which to re-scale the simulated values.  necessary when simulation runs with something different from 100%.  needs to be adapted manually -->
		<param name="countsScaleFactor" value="1.0" />
		<!-- distance to distanceFilterCenterNode to include counting stations. The unit of distance is the Euclidean distance implied by the coordinate system -->
		<param name="distanceFilter" value="null" />
		<!-- node id for center node of distance filter -->
		<param name="distanceFilterCenterNode" value="null" />
		<!-- input file containing the alighting (getting off) counts for pt -->
		<param name="inputAlightCountsFile" value="null" />
		<!-- input file containing the boarding (getting on) counts for pt -->
		<param name="inputBoardCountsFile" value="null" />
		<!-- input file containing the occupancy counts for pt -->
		<param name="inputOccupancyCountsFile" value="null" />
		<!-- possible values: `html', `kml', `txt', `all' -->
		<param name="outputformat" value="null" />
		<!-- every how many iterations (starting with 0) counts comparisons are generated -->
		<param name="ptCountsInterval" value="10" />
	</module>
	<module name="qsim" >
		<param name="endTime" value="23:00:00" />
		<param name="flowCapacityFactor" value="0.01" />
		<!-- decides if waiting vehicles enter the network after or before the already driving vehicles were moved. Default: false -->
		<param name="insertingWaitingVehiclesBeforeDrivingVehicles" value="true" />
		<!-- If link dynamics is set as SeepageQ, set to false if all seep modes should perform seepage. Default is true (better option). -->
		<param name="isRestrictingSeepage" value="true" />
		<!-- If link dynamics is set as SeepageQ, set to true if seep mode do not consumes any space on the link. Default is false. -->
		<param name="isSeepModeStorageFree" value="false" />
		<!-- default: FIFO; options: FIFO PassingQ SeepageQ -->
		<param name="linkDynamics" value="FIFO" />
		<!-- The (initial) width of the links of the network. Use positive floating point values. This is used only for visualisation. -->
		<param name="linkWidth" value="30.0" />
		<!-- [comma-separated list] Defines which modes are congested modes. Technically, these are the modes that the departure handler of the netsimengine handles.  Effective cell size, effective lane width, flow capacity factor, and storage capacity factor need to be set with diligence.  Need to be vehicular modes to make sense. -->
		<param name="mainMode" value="car" />
		<!-- Shortens a link in the visualization, i.e. its start and end point are moved into towards the center. Does not affect traffic flow.  -->
		<param name="nodeOffset" value="0.0" />
		<!-- Number of threads used for the QSim.  Note that this setting is independent from the "global" threads setting.  In contrast to earlier versions, the non-parallel special version is no longer there. -->
		<param name="numberOfThreads" value="48" />
		<!-- Boolean. `true': stuck vehicles are removed, aborting the plan; `false': stuck vehicles are forced into the next link. `false' is probably the better choice. -->
		<param name="removeStuckVehicles" value="false" />
		<!-- If link dynamics is set as SeepageQ, set a seep mode. Default is bike. -->
		<param name="seepMode" value="bike" />
		<!-- Possible values: minOfEndtimeAndMobsimFinished, onlyUseEndtime -->
		<param name="simEndtimeInterpretation" value="null" />
		<!-- Options: maxOfStarttimeAndEarliestActivityEnd onlyUseStarttime  -->
		<param name="simStarttimeInterpretation" value="maxOfStarttimeAndEarliestActivityEnd" />
		<!-- snapshotStyle. One of: equiDist queue withHoles withHolesAndShowHoles kinematicWaves  -->
		<param name="snapshotStyle" value="equiDist" />
		<param name="snapshotperiod" value="00:00:00" />
		<param name="startTime" value="00:00:00" />
		<param name="storageCapacityFactor" value="0.01" />
		<!-- time in seconds.  Time after which the frontmost vehicle on a link is called `stuck' if it does not move. -->
		<param name="stuckTime" value="10.0" />
		<param name="timeStepSize" value="00:00:01" />
		<!-- options: queue withHoles kinematicWaves  -->
		<param name="trafficDynamics" value="queue" />
		<!-- Set this parameter to true if lanes should be used, false if not. -->
		<param name="useLanes" value="false" />
		<!-- If a route does not reference a vehicle, agents will use the vehicle with the same id as their own. -->
		<param name="usePersonIdForMissingVehicleId" value="true" />
		<!-- If false, the qsim accumulates fractional flows up to one flow unit in every time step.  If true, flows are updated only if an agent wants to enter the link or an agent is added to buffer. Default is true. -->
		<param name="usingFastCapacityUpdate" value="true" />
		<!-- if the qsim should use as many runners as there are threads (Christoph's dissertation version) or more of them, together with a thread pool (seems to be faster in some situations, but is not tested). -->
		<param name="usingThreadpool" value="true" />
		<!-- Defines what happens if an agent wants to depart, but the specified vehicle is not available. One of: teleport wait exception  -->
		<param name="vehicleBehavior" value="teleport" />
		<!-- If vehicles should all be the same default vehicle, or come from the vehicles file, or something else.  Possible values:  defaultVehicle modeVehicleTypesFromVehiclesData fromVehiclesData -->
		<param name="vehiclesSource" value="defaultVehicle" />
	</module>
	<module name="strategy" >
		<!-- the external executable will be called with a config file as argument.  This is the pathname to a possible skeleton config, to which additional information will be added.  Can be null. -->
		<param name="ExternalExeConfigTemplate" value="null" />
		<!-- time out value (in seconds) after which matsim will consider the external strategy as failed -->
		<param name="ExternalExeTimeOut" value="3600" />
		<!-- root directory for temporary files generated by the external executable. Provided as a service; I don't think this is used by MATSim. -->
		<param name="ExternalExeTmpFileRootDir" value="null" />
		<!-- fraction of iterations where innovative strategies are switched off.  Something like 0.8 should be good.  E.g. if you run from iteration 400 to iteration 500, innovation is switched off at iteration 480 -->
		<param name="fractionOfIterationsToDisableInnovation" value="Infinity" />
		<!-- maximum number of plans per agent.  ``0'' means ``infinity''.  Currently (2010), ``5'' is a good number -->
		<param name="maxAgentPlanMemorySize" value="1" />
		<!-- strategyName of PlanSelector for plans removal.  Possible defaults: WorstPlanSelector SelectRandom SelectExpBetaForRemoval ChangeExpBetaForRemoval PathSizeLogitSelectorForRemoval . The current default, WorstPlanSelector is not a good choice from a discrete choice theoretical perspective. Alternatives, however, have not been systematically tested. kai, feb'12 -->
		<param name="planSelectorForRemoval" value="NonSelectedPlanSelector" />
		<parameterset type="strategysettings" >
			<!-- iteration after which strategy will be disabled.  most useful for ``innovative'' strategies (new routes, new times, ...). Normally, better use fractionOfIterationsToDisableInnovation -->
			<param name="disableAfterIteration" value="-1" />
			<!-- path to external executable (if applicable) -->
			<param name="executionPath" value="null" />
			<!-- strategyName of strategy.  Possible default names: SelectRandom BestScore KeepLastSelected ChangeExpBeta SelectExpBeta SelectPathSizeLogit      (selectors), ReRouteTimeAllocationMutatorTimeAllocationMutator_ReRouteChangeSingleTripModeChangeTripModeSubtourModeChoice (innovative strategies). -->
			<param name="strategyName" value="DiscreteModeChoice" />
			<!-- subpopulation to which the strategy applies. "null" refers to the default population, that is, the set of persons for which no explicit subpopulation is defined (ie no subpopulation attribute) -->
			<param name="subpopulation" value="null" />
			<!-- weight of a strategy: for each agent, a strategy will be selected with a probability proportional to its weight -->
			<param name="weight" value="0.1" />
		</parameterset>
		<parameterset type="strategysettings" >
			<param name="disableAfterIteration" value="-1" />
			<param name="executionPath" value="null" />
			<param name="strategyName" value="KeepLastSelected" />
			<param name="subpopulation" value="null" />
			<param name="weight" value="0.9" />
		</parameterset>
	</module>
	<module name="subtourModeChoice" >
		<!-- Only for backwards compatibility.  Defines if only trips from modes list should change mode, or all trips.  Options: fromAllModesToSpecifiedModes fromSpecifiedModesToSpecifiedModes  -->
		<param name="behavior" value="fromSpecifiedModesToSpecifiedModes" />
		<!-- Defines the chain-based modes, seperated by commas -->
		<param name="chainBasedModes" value="car,bike" />
		<!-- Defines whether car availability must be considered or not. A agent has no car only if it has no license, or never access to a car -->
		<param name="considerCarAvailability" value="false" />
		<!-- Defines all the modes available, including chain-based modes, seperated by commas -->
		<param name="modes" value="car,pt,bike,walk" />
	</module>
	<module name="swissRailRaptor" >
		<!-- Sets whether intermodal access and egress modes are selected by least cost (default) or randomly chosen out of the available access / egress modes. -->
		<param name="intermodalAccessEgressModeSelection" value="CalcLeastCostModePerStop" />
		<!-- Possible values: Default, Individual -->
		<param name="scoringParameters" value="Default" />
		<param name="transferPenaltyBaseCost" value="0.0" />
		<param name="transferPenaltyCostPerTravelTimeHour" value="3.5" />
		<param name="transferPenaltyMaxCost" value="Infinity" />
		<param name="transferPenaltyMinCost" value="-Infinity" />
		<param name="useIntermodalAccessEgress" value="false" />
		<param name="useModeMappingForPassengers" value="false" />
		<param name="useRangeQuery" value="false" />
	</module>
	<module name="transit" >
		<!-- The Coordinates Reference System in which the coordinates are expressed in the input file. At import, the coordinates will be converted to the coordinate system defined in "global", and willbe converted back at export. If not specified, no conversion happens. -->
		<param name="inputScheduleCRS" value="null" />
		<param name="insistingOnUsingDeprecatedAttributeFiles" value="false" />
		<!-- Optional input file containing additional attributes for transit lines, stored as ObjectAttributes. -->
		<param name="transitLinesAttributesFile" value="null" />
		<!-- Comma-separated list of transportation modes that are handled as transit. Defaults to 'pt'. -->
		<param name="transitModes" value="pt" />
		<!-- Input file containing the transit schedule to be simulated. -->
		<param name="transitScheduleFile" value="/home/sara/matsim-12.0/input/transit_schedule.xml" />
		<!-- Optional input file containing additional attributes for transit stop facilities, stored as ObjectAttributes. -->
		<param name="transitStopsAttributesFile" value="null" />
		<!-- Set this parameter to true if transit should be simulated, false if not. -->
		<param name="useTransit" value="true" />
		<param name="usingTransitInMobsim" value="true" />
		<!-- Input file containing the vehicles used by the departures in the transit schedule. -->
		<param name="vehiclesFile" value="/home/sara/matsim-12.0/input/transit_vehicles.xml" />
	</module>
	<module name="transitRouter" >
		<!-- additional time the router allocates when a line switch happens. Can be interpreted as a 'safety' time that agents need to safely transfer from one line to another -->
		<param name="additionalTransferTime" value="0.0" />
		<!-- Factor with which direct walk generalized cost is multiplied before it is compared to the pt generalized cost.  Set to a very high value to reduce direct walk results. -->
		<param name="directWalkFactor" value="1.0" />
		<!-- step size to increase searchRadius if no stops are found -->
		<param name="extensionRadius" value="200.0" />
		<!-- maximum beeline distance between stops that agents could transfer to by walking -->
		<param name="maxBeelineWalkConnectionDistance" value="100.0" />
		<!-- the radius in which stop locations are searched, given a start or target coordinate -->
		<param name="searchRadius" value="1000.0" />
	</module>
	<module name="travelTimeCalculator" >
		<!-- (only for backwards compatibility; only used if separateModes==false && + filterModes==true)  Transport modes that will be respected by the travel time collector. 'car' is default which includes also buses from the pt simulation module. -->
		<param name="analyzedModes" value="car" />
		<param name="calculateLinkToLinkTravelTimes" value="false" />
		<param name="calculateLinkTravelTimes" value="true" />
		<!-- (only for backwards compatiblity; only used if separateModes==false)  Only modes included in analyzedModes are included. -->
		<param name="filterModes" value="false" />
		<!-- The lenght (in sec) of the time period that is splited into time bins; an additional time bin is created to aggregate all travel times collected after maxTime -->
		<param name="maxTime" value="108000" />
		<!-- (only for backwards compatibility) If false, link travel times are measured and aggregated over all vehicles using the link. -->
		<param name="separateModes" value="true" />
		<!-- How to deal with congested time bins that have no link entry events. `optimistic' assumes free speed (too optimistic); 'experimental_LastMile' is experimental and probably too pessimistic. -->
		<param name="travelTimeAggregator" value="optimistic" />
		<!-- The size of the time bin (in sec) into which the link travel times are aggregated for the router -->
		<param name="travelTimeBinSize" value="900" />
		<!-- possible values: TravelTimeCalculatorArray TravelTimeCalculatorHashMap  -->
		<param name="travelTimeCalculator" value="TravelTimeCalculatorArray" />
		<!-- How to deal with link entry times at different positions during the time bin. Currently supported: average, linearinterpolation -->
		<param name="travelTimeGetter" value="average" />
	</module>
	<module name="vehicles" >
		<param name="vehiclesFile" value="null" />
	</module>
	<module name="vspExperimental" >
		<!-- (do not use except of you have to) There was a problem with pt interaction scoring.  Some people solved it by overwriting the parameters of the pt interaction activity type.  Doing this now throws an Exception.  If you still insist on doing this, set the following to true. -->
		<param name="isAbleToOverwritePtInteractionParams" value="false" />
		<param name="isGeneratingBoardingDeniedEvent" value="false" />
		<!-- if an approximation of the opportunity cost of time is included into the radius calculation for location choice.`true' will be faster, but it is an approximation.  Default is `true'; `false' is available for backwards compatibility. -->
		<param name="isUsingOpportunityCostOfTimeForLocationChoice" value="true" />
		<param name="logitScaleParamForPlansRemoval" value="1.0" />
		<!-- Options: | ignore | info | warn | abort | .  When violating VSP defaults, this results in nothing, logfile infos, logfile warnings, or aborts.  Members of VSP should use `abort' or talk to kai. -->
		<param name="vspDefaultsCheckingLevel" value="ignore" />
		<!-- if true then writes output_events in output directory.  default is `false'. Will only work when lastIteration is multiple of events writing interval -->
		<param name="writingOutputEvents" value="true" />
	</module>

</config>

2020-12-10T14:50:18,867  INFO ControlerUtils:84 Complete config dump done.
2020-12-10T14:50:18,867  INFO ControlerUtils:85 Checking consistency of config...
2020-12-10T14:50:18,867  INFO PlanCalcScoreConfigGroup$ScoringParameterSet:1528 NO OPENING OR CLOSING TIMES DEFINED!

There is no activity type that has an opening *and* closing time (or opening time and late penalty) defined.
This usually means that the activity chains can be shifted by an arbitrary
number of hours without having an effect on the score of the plans, and thus
resulting in wrong results / traffic patterns.
If you are using MATSim without time adaptation, you can ignore this warning.


2020-12-10T14:50:18,867  INFO VspConfigConsistencyCheckerImpl:58 NOT running vsp config consistency check because vsp defaults checking level is set to IGNORE
2020-12-10T14:50:18,874  INFO ControlerUtils:87 Checking consistency of config done.
2020-12-10T14:50:18,874  INFO PrepareForSimImpl:115 Network seems to be multimodal. Create car-only network which is handed over to PersonPrepareForSim.
2020-12-10T14:50:18,883  INFO NetworkImpl:163  node # 1
2020-12-10T14:50:18,883  INFO NetworkImpl:163  node # 4
2020-12-10T14:50:18,883  INFO NetworkImpl:163  node # 16
2020-12-10T14:50:18,884  INFO NetworkImpl:163  node # 64
2020-12-10T14:50:18,884  INFO NetworkImpl:163  node # 256
2020-12-10T14:50:18,885  INFO NetworkImpl:163  node # 1024
2020-12-10T14:50:18,889  INFO NetworkImpl:163  node # 4096
2020-12-10T14:50:18,894  INFO NetworkImpl:159  link # 1
2020-12-10T14:50:18,894  INFO NetworkImpl:159  link # 4
2020-12-10T14:50:18,895  INFO NetworkImpl:159  link # 16
2020-12-10T14:50:18,896  INFO NetworkImpl:159  link # 64
2020-12-10T14:50:18,899  INFO NetworkImpl:159  link # 256
2020-12-10T14:50:18,907  INFO NetworkImpl:159  link # 1024
2020-12-10T14:50:18,929  INFO NetworkImpl:159  link # 4096
2020-12-10T14:50:18,959  WARN PrepareForSimImpl:222 'usePersonIdForMissingVehicleId' is deprecated. It will be removed soon.
2020-12-10T14:50:18,959  INFO Counter:69 [VehiclesImpl] added vehicle # 1
2020-12-10T14:50:18,960  INFO Counter:69 [VehiclesImpl] added vehicle # 2
2020-12-10T14:50:18,960  INFO Counter:69 [VehiclesImpl] added vehicle # 4
2020-12-10T14:50:18,960  INFO Counter:69 [VehiclesImpl] added vehicle # 8
2020-12-10T14:50:18,960  INFO Counter:69 [VehiclesImpl] added vehicle # 16
2020-12-10T14:50:18,961  INFO Counter:69 [VehiclesImpl] added vehicle # 32
2020-12-10T14:50:18,961  INFO Counter:69 [VehiclesImpl] added vehicle # 64
2020-12-10T14:50:18,962  INFO Counter:69 [VehiclesImpl] added vehicle # 128
2020-12-10T14:50:18,963  INFO Counter:69 [VehiclesImpl] added vehicle # 256
2020-12-10T14:50:18,965  INFO Counter:69 [VehiclesImpl] added vehicle # 512
2020-12-10T14:50:18,968  INFO Counter:69 [VehiclesImpl] added vehicle # 1024
2020-12-10T14:50:18,973  INFO Counter:69 [VehiclesImpl] added vehicle # 2048
2020-12-10T14:50:18,978  INFO Counter:69 [VehiclesImpl] added vehicle # 4096
2020-12-10T14:50:18,987  INFO Counter:69 [VehiclesImpl] added vehicle # 8192
2020-12-10T14:50:19,067  INFO EventsManagerImpl:158 adding Event-Handler: ch.sbb.matsim.routing.pt.raptor.SwissRailRaptorFactory$$Lambda$217/0x00000008403f6440
2020-12-10T14:50:19,067  INFO EventsManagerImpl:162   org.matsim.pt.router.TransitScheduleChangedEventHandler
2020-12-10T14:50:19,067  INFO EventsManagerImpl:221     > org.matsim.pt.router.TransitScheduleChangedEvent
2020-12-10T14:50:19,067  INFO EventsManagerImpl:170 
2020-12-10T14:50:19,067  INFO EventsManagerImpl:158 adding Event-Handler: ch.sbb.matsim.routing.pt.raptor.SwissRailRaptorFactory$$Lambda$217/0x00000008403f6440
2020-12-10T14:50:19,067  INFO EventsManagerImpl:162   org.matsim.pt.router.TransitScheduleChangedEventHandler
2020-12-10T14:50:19,068  INFO EventsManagerImpl:221     > org.matsim.pt.router.TransitScheduleChangedEvent
2020-12-10T14:50:19,068  INFO EventsManagerImpl:170 
2020-12-10T14:50:19,069  INFO SwissRailRaptorData:72 Preparing data for SwissRailRaptor...
2020-12-10T14:50:19,076 ERROR MatsimRuntimeModifications:75 Getting uncaught Exception in Thread main
com.google.inject.ProvisionException: Unable to provision, see the following errors:

1) Error in custom provider, java.lang.NullPointerException
  while locating ch.sbb.matsim.routing.pt.raptor.SwissRailRaptorFactory
  while locating ch.sbb.matsim.routing.pt.raptor.SwissRailRaptor
    for the 1st parameter of ch.sbb.matsim.routing.pt.raptor.SwissRailRaptorRoutingModuleProvider.<init>(SwissRailRaptorRoutingModuleProvider.java:28)
  while locating ch.sbb.matsim.routing.pt.raptor.SwissRailRaptorRoutingModuleProvider
  while locating org.matsim.core.router.RoutingModule annotated with @com.google.inject.name.Named(value="pt")
  while locating org.matsim.core.router.RoutingModule annotated with @com.google.inject.internal.Element(setName=,uniqueId=450, type=MAPBINDER, keyType=java.lang.String)
  at org.matsim.core.router.TripRouter.<init>(TripRouter.java:103)
  while locating org.matsim.core.router.TripRouter

1 error
	at com.google.inject.internal.InternalProvisionException.toProvisionException(InternalProvisionException.java:226) ~[guice-4.2.2.jar:?]
	at com.google.inject.internal.InjectorImpl$1.get(InjectorImpl.java:1053) ~[guice-4.2.2.jar:?]
	at org.matsim.core.controler.PrepareForSimImpl.lambda$run$0(PrepareForSimImpl.java:173) ~[matsim-12.0.jar:?]
	at org.matsim.core.population.algorithms.ParallelPersonAlgorithmUtils.run(ParallelPersonAlgorithmUtils.java:86) ~[matsim-12.0.jar:?]
	at org.matsim.core.controler.PrepareForSimImpl.run(PrepareForSimImpl.java:172) ~[matsim-12.0.jar:?]
	at org.matsim.core.controler.NewControler.prepareForSim(NewControler.java:113) ~[matsim-12.0.jar:?]
	at org.matsim.core.controler.AbstractController$1.run(AbstractController.java:79) ~[matsim-12.0.jar:?]
	at org.matsim.core.controler.MatsimRuntimeModifications.run(MatsimRuntimeModifications.java:69) [matsim-12.0.jar:?]
	at org.matsim.core.controler.MatsimRuntimeModifications.run(MatsimRuntimeModifications.java:52) [matsim-12.0.jar:?]
	at org.matsim.core.controler.AbstractController.run(AbstractController.java:88) [matsim-12.0.jar:?]
	at org.matsim.core.controler.NewControler.run(NewControler.java:82) [matsim-12.0.jar:?]
	at org.matsim.core.controler.Controler.run(Controler.java:249) [matsim-12.0.jar:?]
	at org.eqasim.quebec.RunSimulation.main(RunSimulation.java:48) [classes/:?]
Caused by: java.lang.NullPointerException
	at ch.sbb.matsim.routing.pt.raptor.SwissRailRaptorData.create(SwissRailRaptorData.java:121) ~[matsim-12.0.jar:?]
	at ch.sbb.matsim.routing.pt.raptor.SwissRailRaptorFactory.prepareData(SwissRailRaptorFactory.java:70) ~[matsim-12.0.jar:?]
	at ch.sbb.matsim.routing.pt.raptor.SwissRailRaptorFactory.getData(SwissRailRaptorFactory.java:59) ~[matsim-12.0.jar:?]
	at ch.sbb.matsim.routing.pt.raptor.SwissRailRaptorFactory.get(SwissRailRaptorFactory.java:53) ~[matsim-12.0.jar:?]
	at ch.sbb.matsim.routing.pt.raptor.SwissRailRaptorFactory.get(SwissRailRaptorFactory.java:21) ~[matsim-12.0.jar:?]
	at com.google.inject.internal.ProviderInternalFactory.provision(ProviderInternalFactory.java:85) ~[guice-4.2.2.jar:?]
	at com.google.inject.internal.BoundProviderFactory.provision(BoundProviderFactory.java:77) ~[guice-4.2.2.jar:?]
	at com.google.inject.internal.ProviderInternalFactory.circularGet(ProviderInternalFactory.java:59) ~[guice-4.2.2.jar:?]
	at com.google.inject.internal.BoundProviderFactory.get(BoundProviderFactory.java:61) ~[guice-4.2.2.jar:?]
	at com.google.inject.internal.SingleParameterInjector.inject(SingleParameterInjector.java:42) ~[guice-4.2.2.jar:?]
	at com.google.inject.internal.SingleParameterInjector.getAll(SingleParameterInjector.java:65) ~[guice-4.2.2.jar:?]
	at com.google.inject.internal.ConstructorInjector.provision(ConstructorInjector.java:113) ~[guice-4.2.2.jar:?]
	at com.google.inject.internal.ConstructorInjector.construct(ConstructorInjector.java:91) ~[guice-4.2.2.jar:?]
	at com.google.inject.internal.ConstructorBindingImpl$Factory.get(ConstructorBindingImpl.java:306) ~[guice-4.2.2.jar:?]
	at com.google.inject.internal.BoundProviderFactory.get(BoundProviderFactory.java:60) ~[guice-4.2.2.jar:?]
	at com.google.inject.internal.FactoryProxy.get(FactoryProxy.java:62) ~[guice-4.2.2.jar:?]
	at com.google.inject.internal.InjectorImpl$1.get(InjectorImpl.java:1050) ~[guice-4.2.2.jar:?]
	at org.matsim.core.router.TripRouter.<init>(TripRouter.java:107) ~[matsim-12.0.jar:?]
	at org.matsim.core.router.TripRouter$$FastClassByGuice$$40b051f1.newInstance(<generated>) ~[matsim-12.0.jar:?]
	at com.google.inject.internal.DefaultConstructionProxyFactory$FastClassProxy.newInstance(DefaultConstructionProxyFactory.java:89) ~[guice-4.2.2.jar:?]
	at com.google.inject.internal.ConstructorInjector.provision(ConstructorInjector.java:114) ~[guice-4.2.2.jar:?]
	at com.google.inject.internal.ConstructorInjector.construct(ConstructorInjector.java:91) ~[guice-4.2.2.jar:?]
	at com.google.inject.internal.ConstructorBindingImpl$Factory.get(ConstructorBindingImpl.java:306) ~[guice-4.2.2.jar:?]
	at com.google.inject.internal.InjectorImpl$1.get(InjectorImpl.java:1050) ~[guice-4.2.2.jar:?]
	... 11 more
2020-12-10T14:50:19,091  INFO MatsimRuntimeModifications:79 S H U T D O W N   ---   start shutdown.
2020-12-10T14:50:19,091 ERROR MatsimRuntimeModifications:81 ERROR --- This is an unexpected shutdown!
2020-12-10T14:50:19,091 ERROR MatsimRuntimeModifications:84 Shutdown possibly caused by the following Exception:
com.google.inject.ProvisionException: Unable to provision, see the following errors:

1) Error in custom provider, java.lang.NullPointerException
  while locating ch.sbb.matsim.routing.pt.raptor.SwissRailRaptorFactory
  while locating ch.sbb.matsim.routing.pt.raptor.SwissRailRaptor
    for the 1st parameter of ch.sbb.matsim.routing.pt.raptor.SwissRailRaptorRoutingModuleProvider.<init>(SwissRailRaptorRoutingModuleProvider.java:28)
  while locating ch.sbb.matsim.routing.pt.raptor.SwissRailRaptorRoutingModuleProvider
  while locating org.matsim.core.router.RoutingModule annotated with @com.google.inject.name.Named(value="pt")
  while locating org.matsim.core.router.RoutingModule annotated with @com.google.inject.internal.Element(setName=,uniqueId=450, type=MAPBINDER, keyType=java.lang.String)
  at org.matsim.core.router.TripRouter.<init>(TripRouter.java:103)
  while locating org.matsim.core.router.TripRouter

1 error
	at com.google.inject.internal.InternalProvisionException.toProvisionException(InternalProvisionException.java:226) ~[guice-4.2.2.jar:?]
	at com.google.inject.internal.InjectorImpl$1.get(InjectorImpl.java:1053) ~[guice-4.2.2.jar:?]
	at org.matsim.core.controler.PrepareForSimImpl.lambda$run$0(PrepareForSimImpl.java:173) ~[matsim-12.0.jar:?]
	at org.matsim.core.population.algorithms.ParallelPersonAlgorithmUtils.run(ParallelPersonAlgorithmUtils.java:86) ~[matsim-12.0.jar:?]
	at org.matsim.core.controler.PrepareForSimImpl.run(PrepareForSimImpl.java:172) ~[matsim-12.0.jar:?]
	at org.matsim.core.controler.NewControler.prepareForSim(NewControler.java:113) ~[matsim-12.0.jar:?]
	at org.matsim.core.controler.AbstractController$1.run(AbstractController.java:79) ~[matsim-12.0.jar:?]
	at org.matsim.core.controler.MatsimRuntimeModifications.run(MatsimRuntimeModifications.java:69) [matsim-12.0.jar:?]
	at org.matsim.core.controler.MatsimRuntimeModifications.run(MatsimRuntimeModifications.java:52) [matsim-12.0.jar:?]
	at org.matsim.core.controler.AbstractController.run(AbstractController.java:88) [matsim-12.0.jar:?]
	at org.matsim.core.controler.NewControler.run(NewControler.java:82) [matsim-12.0.jar:?]
	at org.matsim.core.controler.Controler.run(Controler.java:249) [matsim-12.0.jar:?]
	at org.eqasim.quebec.RunSimulation.main(RunSimulation.java:48) [classes/:?]
Caused by: java.lang.NullPointerException
	at ch.sbb.matsim.routing.pt.raptor.SwissRailRaptorData.create(SwissRailRaptorData.java:121) ~[matsim-12.0.jar:?]
	at ch.sbb.matsim.routing.pt.raptor.SwissRailRaptorFactory.prepareData(SwissRailRaptorFactory.java:70) ~[matsim-12.0.jar:?]
	at ch.sbb.matsim.routing.pt.raptor.SwissRailRaptorFactory.getData(SwissRailRaptorFactory.java:59) ~[matsim-12.0.jar:?]
	at ch.sbb.matsim.routing.pt.raptor.SwissRailRaptorFactory.get(SwissRailRaptorFactory.java:53) ~[matsim-12.0.jar:?]
	at ch.sbb.matsim.routing.pt.raptor.SwissRailRaptorFactory.get(SwissRailRaptorFactory.java:21) ~[matsim-12.0.jar:?]
	at com.google.inject.internal.ProviderInternalFactory.provision(ProviderInternalFactory.java:85) ~[guice-4.2.2.jar:?]
	at com.google.inject.internal.BoundProviderFactory.provision(BoundProviderFactory.java:77) ~[guice-4.2.2.jar:?]
	at com.google.inject.internal.ProviderInternalFactory.circularGet(ProviderInternalFactory.java:59) ~[guice-4.2.2.jar:?]
	at com.google.inject.internal.BoundProviderFactory.get(BoundProviderFactory.java:61) ~[guice-4.2.2.jar:?]
	at com.google.inject.internal.SingleParameterInjector.inject(SingleParameterInjector.java:42) ~[guice-4.2.2.jar:?]
	at com.google.inject.internal.SingleParameterInjector.getAll(SingleParameterInjector.java:65) ~[guice-4.2.2.jar:?]
	at com.google.inject.internal.ConstructorInjector.provision(ConstructorInjector.java:113) ~[guice-4.2.2.jar:?]
	at com.google.inject.internal.ConstructorInjector.construct(ConstructorInjector.java:91) ~[guice-4.2.2.jar:?]
	at com.google.inject.internal.ConstructorBindingImpl$Factory.get(ConstructorBindingImpl.java:306) ~[guice-4.2.2.jar:?]
	at com.google.inject.internal.BoundProviderFactory.get(BoundProviderFactory.java:60) ~[guice-4.2.2.jar:?]
	at com.google.inject.internal.FactoryProxy.get(FactoryProxy.java:62) ~[guice-4.2.2.jar:?]
	at com.google.inject.internal.InjectorImpl$1.get(InjectorImpl.java:1050) ~[guice-4.2.2.jar:?]
	at org.matsim.core.router.TripRouter.<init>(TripRouter.java:107) ~[matsim-12.0.jar:?]
	at org.matsim.core.router.TripRouter$$FastClassByGuice$$40b051f1.newInstance(<generated>) ~[matsim-12.0.jar:?]
	at com.google.inject.internal.DefaultConstructionProxyFactory$FastClassProxy.newInstance(DefaultConstructionProxyFactory.java:89) ~[guice-4.2.2.jar:?]
	at com.google.inject.internal.ConstructorInjector.provision(ConstructorInjector.java:114) ~[guice-4.2.2.jar:?]
	at com.google.inject.internal.ConstructorInjector.construct(ConstructorInjector.java:91) ~[guice-4.2.2.jar:?]
	at com.google.inject.internal.ConstructorBindingImpl$Factory.get(ConstructorBindingImpl.java:306) ~[guice-4.2.2.jar:?]
	at com.google.inject.internal.InjectorImpl$1.get(InjectorImpl.java:1050) ~[guice-4.2.2.jar:?]
	... 11 more
2020-12-10T14:50:19,093  INFO ControlerListenerManagerImpl:121 calling notifyShutdown on org.matsim.core.controler.corelisteners.EventsHandlingImpl
2020-12-10T14:50:19,093  INFO ControlerListenerManagerImpl:121 calling notifyShutdown on org.matsim.core.controler.corelisteners.DumpDataAtEndImpl
2020-12-10T14:50:19,093  INFO ControlerListenerManagerImpl:126 calling notifyShutdown on org.matsim.analysis.ModeStatsControlerListener
2020-12-10T14:50:19,093  INFO ControlerListenerManagerImpl:126 calling notifyShutdown on org.matsim.analysis.ScoreStatsControlerListener
2020-12-10T14:50:19,093  INFO ControlerListenerManagerImpl:126 calling notifyShutdown on org.matsim.analysis.IterationTravelStatsControlerListener
2020-12-10T14:50:19,931  INFO IterationTravelStatsControlerListener:100 Writing all Person and Attributes to personscsv
2020-12-10T14:50:20,085  INFO IterationTravelStatsControlerListener:134 ...done
2020-12-10T14:50:20,086  INFO ControlerListenerManagerImpl:126 calling notifyShutdown on org.eqasim.core.simulation.analysis.AnalysisOutputListener
2020-12-10T14:50:20,087  INFO ControlerListenerManagerImpl:129 all ControlerShutdownListeners called.
2020-12-10T14:50:20,087 ERROR MatsimRuntimeModifications:99 ERROR --- MATSim unexpectedly terminated. Please check the output or the logfile with warnings and errors for hints.
2020-12-10T14:50:20,087 ERROR MatsimRuntimeModifications:100 ERROR --- results should not be used for further analysis.
2020-12-10T14:50:20,087  INFO MatsimRuntimeModifications:102 S H U T D O W N   ---   shutdown completed.
2020-12-10T14:50:20,087 ERROR MatsimRuntimeModifications:104 ERROR --- This was an unexpected shutdown! See the log file for a possible reason.
